# generated using pymatgen
data_CeMg
_symmetry_space_group_name_H-M   'P 1'
_cell_length_a   3.09991738
_cell_length_b   3.09991754
_cell_length_c   29.02800600
_cell_angle_alpha   90.00000000
_cell_angle_beta   90.00000000
_cell_angle_gamma   120.00000834
_symmetry_Int_Tables_number   1
_chemical_formula_structural   CeMg
_chemical_formula_sum   'Ce2 Mg2'
_cell_volume   241.57281499
_cell_formula_units_Z   2
loop_
 _symmetry_equiv_pos_site_id
 _symmetry_equiv_pos_as_xyz
  1  'x, y, z'
loop_
 _atom_site_type_symbol
 _atom_site_label
 _atom_site_symmetry_multiplicity
 _atom_site_fract_x
 _atom_site_fract_y
 _atom_site_fract_z
 _atom_site_occupancy
  Ce  Ce1  1  0.333333  0.666667  0.446491  1
  Ce  Ce2  1  0.666667  0.333333  0.553509  1
  Mg  Mg3  1  0.666667  0.333333  0.345139  1
  Mg  Mg4  1  0.333333  0.666667  0.654861  1
