# generated using pymatgen
data_ZnP2(HO)4
_symmetry_space_group_name_H-M   'P 1'
_cell_length_a   5.39064779
_cell_length_b   6.45230643
_cell_length_c   27.36546900
_cell_angle_alpha   90.00000000
_cell_angle_beta   90.00000000
_cell_angle_gamma   90.00000000
_symmetry_Int_Tables_number   1
_chemical_formula_structural   ZnP2(HO)4
_chemical_formula_sum   'Zn2 P4 H8 O8'
_cell_volume   951.82879120
_cell_formula_units_Z   2
loop_
 _symmetry_equiv_pos_site_id
 _symmetry_equiv_pos_as_xyz
  1  'x, y, z'
loop_
 _atom_site_type_symbol
 _atom_site_label
 _atom_site_symmetry_multiplicity
 _atom_site_fract_x
 _atom_site_fract_y
 _atom_site_fract_z
 _atom_site_occupancy
  Zn  Zn1  1  0.500000  0.500000  0.500000  1
  Zn  Zn2  1  0.500000  0.000000  0.500000  1
  P  P3  1  -0.000000  0.750000  0.539227  1
  P  P4  1  -0.000000  0.250000  0.460773  1
  P  P5  1  0.500000  0.750000  0.398408  1
  P  P6  1  0.500000  0.250000  0.601592  1
  H  H7  1  -0.000000  0.574814  0.570079  1
  H  H8  1  -0.000000  0.425186  0.429921  1
  H  H9  1  -0.000000  0.925186  0.570079  1
  H  H10  1  -0.000000  0.074814  0.429921  1
  H  H11  1  0.706198  0.750000  0.365918  1
  H  H12  1  0.706198  0.250000  0.634082  1
  H  H13  1  0.293802  0.250000  0.634082  1
  H  H14  1  0.293802  0.750000  0.365918  1
  O  O15  1  0.238501  0.750000  0.508710  1
  O  O16  1  0.238501  0.250000  0.491290  1
  O  O17  1  0.761499  0.250000  0.491290  1
  O  O18  1  0.761499  0.750000  0.508710  1
  O  O19  1  0.500000  0.546857  0.426538  1
  O  O20  1  0.500000  0.453143  0.573462  1
  O  O21  1  0.500000  0.953143  0.426538  1
  O  O22  1  0.500000  0.046857  0.573462  1
