# generated using pymatgen
data_CdTeMoO6
_symmetry_space_group_name_H-M   'P 1'
_cell_length_a   5.32131661
_cell_length_b   5.32131661
_cell_length_c   27.70161174
_cell_angle_alpha   90.00000000
_cell_angle_beta   90.00000000
_cell_angle_gamma   90.00000000
_symmetry_Int_Tables_number   1
_chemical_formula_structural   CdTeMoO6
_chemical_formula_sum   'Cd2 Te2 Mo2 O12'
_cell_volume   784.41020854
_cell_formula_units_Z   2
loop_
 _symmetry_equiv_pos_site_id
 _symmetry_equiv_pos_as_xyz
  1  'x, y, z'
loop_
 _atom_site_type_symbol
 _atom_site_label
 _atom_site_symmetry_multiplicity
 _atom_site_fract_x
 _atom_site_fract_y
 _atom_site_fract_z
 _atom_site_occupancy
  Cd  Cd1  1  -0.000000  -0.000000  0.500000  1
  Cd  Cd2  1  0.500000  0.500000  0.500000  1
  Te  Te3  1  0.000000  0.500000  0.414087  1
  Te  Te4  1  0.500000  0.000000  0.585913  1
  Mo  Mo5  1  -0.000000  0.500000  0.604736  1
  Mo  Mo6  1  0.500000  0.000000  0.395264  1
  O  O7  1  0.814489  0.314489  0.642447  1
  O  O8  1  0.185511  0.685511  0.642447  1
  O  O9  1  0.306649  0.806649  0.540910  1
  O  O10  1  0.693351  0.193351  0.540910  1
  O  O11  1  0.720554  0.220554  0.428594  1
  O  O12  1  0.279446  0.779446  0.428594  1
  O  O13  1  0.193351  0.306649  0.459090  1
  O  O14  1  0.779446  0.720554  0.571406  1
  O  O15  1  0.806649  0.693351  0.459090  1
  O  O16  1  0.314489  0.185511  0.357553  1
  O  O17  1  0.685511  0.814489  0.357553  1
  O  O18  1  0.220554  0.279446  0.571406  1
