# generated using pymatgen
data_ZrN2
_symmetry_space_group_name_H-M   'P 1'
_cell_length_a   3.40727074
_cell_length_b   3.40727081
_cell_length_c   21.95050700
_cell_angle_alpha   90.00000000
_cell_angle_beta   90.00000000
_cell_angle_gamma   59.99872592
_symmetry_Int_Tables_number   1
_chemical_formula_structural   ZrN2
_chemical_formula_sum   'Zr1 N2'
_cell_volume   220.69012869
_cell_formula_units_Z   1
loop_
 _symmetry_equiv_pos_site_id
 _symmetry_equiv_pos_as_xyz
  1  'x, y, z'
loop_
 _atom_site_type_symbol
 _atom_site_label
 _atom_site_symmetry_multiplicity
 _atom_site_fract_x
 _atom_site_fract_y
 _atom_site_fract_z
 _atom_site_occupancy
  Zr  Zr1  1  -0.000000  0.000000  0.500000  1
  N  N2  1  0.666674  0.666674  0.455927  1
  N  N3  1  0.333326  0.333326  0.544073  1
