# generated using pymatgen
data_LiVF6
_symmetry_space_group_name_H-M   'P 1'
_cell_length_a   10.53838138
_cell_length_b   10.29540546
_cell_length_c   25.23143073
_cell_angle_alpha   90.00000000
_cell_angle_beta   89.89183822
_cell_angle_gamma   90.00000000
_symmetry_Int_Tables_number   1
_chemical_formula_structural   LiVF6
_chemical_formula_sum   'Li4 V4 F24'
_cell_volume   2737.52737039
_cell_formula_units_Z   4
loop_
 _symmetry_equiv_pos_site_id
 _symmetry_equiv_pos_as_xyz
  1  'x, y, z'
loop_
 _atom_site_type_symbol
 _atom_site_label
 _atom_site_symmetry_multiplicity
 _atom_site_fract_x
 _atom_site_fract_y
 _atom_site_fract_z
 _atom_site_occupancy
  Li  Li1  1  0.108076  0.324238  0.516341  1
  Li  Li2  1  0.608076  0.175762  0.516341  1
  Li  Li3  1  0.391924  0.824238  0.483659  1
  Li  Li4  1  0.891924  0.675762  0.483659  1
  V  V5  1  0.177454  0.649072  0.552023  1
  V  V6  1  0.677454  0.850928  0.552023  1
  V  V7  1  0.322546  0.149072  0.447977  1
  V  V8  1  0.822546  0.350928  0.447977  1
  F  F9  1  0.415116  0.087727  0.394904  1
  F  F10  1  0.213829  0.797371  0.584231  1
  F  F11  1  0.319067  0.572733  0.573681  1
  F  F12  1  0.915116  0.412273  0.394904  1
  F  F13  1  0.713829  0.702629  0.584231  1
  F  F14  1  0.033272  0.722553  0.522142  1
  F  F15  1  0.819067  0.927267  0.573681  1
  F  F16  1  0.138489  0.499819  0.513417  1
  F  F17  1  0.238508  0.206900  0.508631  1
  F  F18  1  0.533272  0.777447  0.522142  1
  F  F19  1  0.261492  0.706900  0.491369  1
  F  F20  1  0.638489  0.000181  0.513417  1
  F  F21  1  0.361511  0.999819  0.486583  1
  F  F22  1  0.738508  0.293100  0.508631  1
  F  F23  1  0.466728  0.222553  0.477858  1
  F  F24  1  0.761492  0.793100  0.491369  1
  F  F25  1  0.861511  0.500181  0.486583  1
  F  F26  1  0.180933  0.072733  0.426319  1
  F  F27  1  0.966728  0.277447  0.477858  1
  F  F28  1  0.286171  0.297371  0.415769  1
  F  F29  1  0.084884  0.587727  0.605096  1
  F  F30  1  0.680933  0.427267  0.426319  1
  F  F31  1  0.786171  0.202629  0.415769  1
  F  F32  1  0.584884  0.912273  0.605096  1
