# generated using pymatgen
data_Ca3Zn
_symmetry_space_group_name_H-M   'P 1'
_cell_length_a   3.98814598
_cell_length_b   9.94777985
_cell_length_c   24.80350000
_cell_angle_alpha   90.00000000
_cell_angle_beta   90.00000000
_cell_angle_gamma   90.00000000
_symmetry_Int_Tables_number   1
_chemical_formula_structural   Ca3Zn
_chemical_formula_sum   'Ca6 Zn2'
_cell_volume   984.03417202
_cell_formula_units_Z   2
loop_
 _symmetry_equiv_pos_site_id
 _symmetry_equiv_pos_as_xyz
  1  'x, y, z'
loop_
 _atom_site_type_symbol
 _atom_site_label
 _atom_site_symmetry_multiplicity
 _atom_site_fract_x
 _atom_site_fract_y
 _atom_site_fract_z
 _atom_site_occupancy
  Ca  Ca1  1  -0.000000  0.500000  0.406494  1
  Ca  Ca2  1  0.500000  -0.000000  0.593506  1
  Ca  Ca3  1  -0.000000  0.686122  0.555543  1
  Ca  Ca4  1  0.500000  0.813878  0.444457  1
  Ca  Ca5  1  0.500000  0.186122  0.444457  1
  Ca  Ca6  1  0.000000  0.313878  0.555543  1
  Zn  Zn7  1  0.500000  0.500000  0.494823  1
  Zn  Zn8  1  0.000000  -0.000000  0.505177  1
