# generated using pymatgen
data_SrPH3O4
_symmetry_space_group_name_H-M   'P 1'
_cell_length_a   7.02697924
_cell_length_b   8.17131909
_cell_length_c   27.23147900
_cell_angle_alpha   90.00000000
_cell_angle_beta   90.00000000
_cell_angle_gamma   90.00000000
_symmetry_Int_Tables_number   1
_chemical_formula_structural   SrPH3O4
_chemical_formula_sum   'Sr4 P4 H12 O16'
_cell_volume   1563.62307177
_cell_formula_units_Z   4
loop_
 _symmetry_equiv_pos_site_id
 _symmetry_equiv_pos_as_xyz
  1  'x, y, z'
loop_
 _atom_site_type_symbol
 _atom_site_label
 _atom_site_symmetry_multiplicity
 _atom_site_fract_x
 _atom_site_fract_y
 _atom_site_fract_z
 _atom_site_occupancy
  Sr  Sr1  1  0.639069  0.599355  0.468008  1
  Sr  Sr2  1  0.139069  0.718003  0.531992  1
  Sr  Sr3  1  0.360931  0.218003  0.531992  1
  Sr  Sr4  1  0.860931  0.099355  0.468008  1
  P  P5  1  0.650896  0.847162  0.561790  1
  P  P6  1  0.150896  0.470196  0.438210  1
  P  P7  1  0.349104  0.970196  0.438210  1
  P  P8  1  0.849104  0.347162  0.561790  1
  H  H9  1  0.743172  0.790829  0.604706  1
  H  H10  1  0.243172  0.526529  0.395294  1
  H  H11  1  0.256828  0.026529  0.395294  1
  H  H12  1  0.756828  0.290829  0.604706  1
  H  H13  1  0.608719  0.355696  0.368072  1
  H  H14  1  0.108719  0.961662  0.631928  1
  H  H15  1  0.391281  0.461662  0.631928  1
  H  H16  1  0.891281  0.855696  0.368072  1
  H  H17  1  0.453514  0.554506  0.582719  1
  H  H18  1  0.953514  0.762852  0.417281  1
  H  H19  1  0.546486  0.262852  0.417281  1
  H  H20  1  0.046486  0.054506  0.582719  1
  O  O21  1  0.799681  0.841755  0.519529  1
  O  O22  1  0.887357  0.863252  0.403628  1
  O  O23  1  0.112643  0.954107  0.596372  1
  O  O24  1  0.612643  0.363252  0.403628  1
  O  O25  1  0.003976  0.216531  0.550041  1
  O  O26  1  0.503976  0.100827  0.449959  1
  O  O27  1  0.996024  0.600827  0.449959  1
  O  O28  1  0.496024  0.716531  0.550041  1
  O  O29  1  0.927597  0.517023  0.571006  1
  O  O30  1  0.427597  0.800335  0.428994  1
  O  O31  1  0.072403  0.300335  0.428994  1
  O  O32  1  0.572403  0.017023  0.571006  1
  O  O33  1  0.200319  0.975603  0.480471  1
  O  O34  1  0.700319  0.341755  0.519529  1
  O  O35  1  0.387357  0.454107  0.596372  1
  O  O36  1  0.299681  0.475603  0.480471  1
