# generated using pymatgen
data_Ag2PdO2
_symmetry_space_group_name_H-M   'P 1'
_cell_length_a   3.05296289
_cell_length_b   4.33827916
_cell_length_c   23.20567280
_cell_angle_alpha   90.00684701
_cell_angle_beta   90.00000000
_cell_angle_gamma   90.00000000
_symmetry_Int_Tables_number   1
_chemical_formula_structural   Ag2PdO2
_chemical_formula_sum   'Ag2 Pd1 O2'
_cell_volume   307.34997420
_cell_formula_units_Z   1
loop_
 _symmetry_equiv_pos_site_id
 _symmetry_equiv_pos_as_xyz
  1  'x, y, z'
loop_
 _atom_site_type_symbol
 _atom_site_label
 _atom_site_symmetry_multiplicity
 _atom_site_fract_x
 _atom_site_fract_y
 _atom_site_fract_z
 _atom_site_occupancy
  Ag  Ag1  1  0.000000  0.000043  0.565715  1
  Ag  Ag2  1  0.000000  0.999957  0.434285  1
  Pd  Pd3  1  0.500000  0.500000  0.500000  1
  O  O4  1  0.000000  0.499953  0.440201  1
  O  O5  1  0.000000  0.500046  0.559799  1
