# generated using pymatgen
data_YBC
_symmetry_space_group_name_H-M   'P 1'
_cell_length_a   3.55135747
_cell_length_b   3.55654210
_cell_length_c   21.49085600
_cell_angle_alpha   90.00000000
_cell_angle_beta   90.00000000
_cell_angle_gamma   90.00000000
_symmetry_Int_Tables_number   1
_chemical_formula_structural   YBC
_chemical_formula_sum   'Y1 B1 C1'
_cell_volume   271.44138184
_cell_formula_units_Z   1
loop_
 _symmetry_equiv_pos_site_id
 _symmetry_equiv_pos_as_xyz
  1  'x, y, z'
loop_
 _atom_site_type_symbol
 _atom_site_label
 _atom_site_symmetry_multiplicity
 _atom_site_fract_x
 _atom_site_fract_y
 _atom_site_fract_z
 _atom_site_occupancy
  Y  Y1  1  0.500000  0.000000  0.510566  1
  B  B2  1  0.000000  0.500000  0.462219  1
  C  C3  1  0.000000  0.500000  0.527215  1
