# generated using pymatgen
data_Te(HO2)2
_symmetry_space_group_name_H-M   'P 1'
_cell_length_a   4.89946857
_cell_length_b   5.24920069
_cell_length_c   24.12507500
_cell_angle_alpha   90.00000000
_cell_angle_beta   90.00000000
_cell_angle_gamma   90.00000000
_symmetry_Int_Tables_number   1
_chemical_formula_structural   Te(HO2)2
_chemical_formula_sum   'Te2 H4 O8'
_cell_volume   620.45576676
_cell_formula_units_Z   2
loop_
 _symmetry_equiv_pos_site_id
 _symmetry_equiv_pos_as_xyz
  1  'x, y, z'
loop_
 _atom_site_type_symbol
 _atom_site_label
 _atom_site_symmetry_multiplicity
 _atom_site_fract_x
 _atom_site_fract_y
 _atom_site_fract_z
 _atom_site_occupancy
  Te  Te1  1  0.500000  0.000000  0.500000  1
  Te  Te2  1  -0.000000  0.500000  0.500000  1
  H  H3  1  0.728749  0.124636  0.413976  1
  H  H4  1  0.228749  0.375364  0.586024  1
  H  H5  1  0.271251  0.875364  0.586024  1
  H  H6  1  0.771251  0.624636  0.413976  1
  O  O7  1  0.649744  0.958463  0.425624  1
  O  O8  1  0.149744  0.541537  0.574376  1
  O  O9  1  0.350256  0.041537  0.574376  1
  O  O10  1  0.850256  0.458463  0.425624  1
  O  O11  1  0.814606  0.196194  0.526237  1
  O  O12  1  0.314606  0.303806  0.473763  1
  O  O13  1  0.185394  0.803806  0.473763  1
  O  O14  1  0.685394  0.696194  0.526237  1
