# generated using pymatgen
data_Sr2MnSO3
_symmetry_space_group_name_H-M   'P 1'
_cell_length_a   3.96897834
_cell_length_b   3.96897834
_cell_length_c   31.17397400
_cell_angle_alpha   90.00000000
_cell_angle_beta   90.00000000
_cell_angle_gamma   90.00000000
_symmetry_Int_Tables_number   1
_chemical_formula_structural   Sr2MnSO3
_chemical_formula_sum   'Sr4 Mn2 S2 O6'
_cell_volume   491.07703669
_cell_formula_units_Z   2
loop_
 _symmetry_equiv_pos_site_id
 _symmetry_equiv_pos_as_xyz
  1  'x, y, z'
loop_
 _atom_site_type_symbol
 _atom_site_label
 _atom_site_symmetry_multiplicity
 _atom_site_fract_x
 _atom_site_fract_y
 _atom_site_fract_z
 _atom_site_occupancy
  Sr  Sr1  1  0.500000  -0.000000  0.656315  1
  Sr  Sr2  1  0.000000  0.500000  0.343685  1
  Sr  Sr3  1  0.500000  -0.000000  0.542925  1
  Sr  Sr4  1  0.000000  0.500000  0.457075  1
  Mn  Mn5  1  0.000000  0.500000  0.597764  1
  Mn  Mn6  1  0.500000  0.000000  0.402236  1
  S  S7  1  -0.000000  0.500000  0.679984  1
  S  S8  1  0.500000  0.000000  0.320016  1
  O  O9  1  -0.000000  0.000000  0.600050  1
  O  O10  1  0.500000  0.500000  0.600050  1
  O  O11  1  0.500000  0.500000  0.399950  1
  O  O12  1  -0.000000  -0.000000  0.399950  1
  O  O13  1  -0.000000  0.500000  0.535863  1
  O  O14  1  0.500000  -0.000000  0.464137  1
