# generated using pymatgen
data_CrF2
_symmetry_space_group_name_H-M   'P 1'
_cell_length_a   3.56197165
_cell_length_b   5.58389934
_cell_length_c   21.52680300
_cell_angle_alpha   90.00000000
_cell_angle_beta   90.00000000
_cell_angle_gamma   90.00000000
_symmetry_Int_Tables_number   1
_chemical_formula_structural   CrF2
_chemical_formula_sum   'Cr2 F4'
_cell_volume   428.16146302
_cell_formula_units_Z   2
loop_
 _symmetry_equiv_pos_site_id
 _symmetry_equiv_pos_as_xyz
  1  'x, y, z'
loop_
 _atom_site_type_symbol
 _atom_site_label
 _atom_site_symmetry_multiplicity
 _atom_site_fract_x
 _atom_site_fract_y
 _atom_site_fract_z
 _atom_site_occupancy
  Cr  Cr1  1  0.500000  0.500000  0.500000  1
  Cr  Cr2  1  -0.000000  0.000000  0.500000  1
  F  F3  1  0.084622  0.318185  0.456540  1
  F  F4  1  0.584622  0.181815  0.543460  1
  F  F5  1  0.415378  0.818185  0.456540  1
  F  F6  1  0.915378  0.681815  0.543460  1
