# generated using pymatgen
data_H3W
_symmetry_space_group_name_H-M   'P 1'
_cell_length_a   3.06499495
_cell_length_b   3.08412039
_cell_length_c   24.14181900
_cell_angle_alpha   90.00000000
_cell_angle_beta   90.00000000
_cell_angle_gamma   90.00000000
_symmetry_Int_Tables_number   1
_chemical_formula_structural   H3W
_chemical_formula_sum   'H6 W2'
_cell_volume   228.20811064
_cell_formula_units_Z   2
loop_
 _symmetry_equiv_pos_site_id
 _symmetry_equiv_pos_as_xyz
  1  'x, y, z'
loop_
 _atom_site_type_symbol
 _atom_site_label
 _atom_site_symmetry_multiplicity
 _atom_site_fract_x
 _atom_site_fract_y
 _atom_site_fract_z
 _atom_site_occupancy
  H  H1  1  0.750000  0.131019  0.586049  1
  H  H2  1  0.250000  0.731357  0.413951  1
  H  H3  1  0.750000  0.190369  0.414538  1
  H  H4  1  0.250000  0.672007  0.585462  1
  H  H5  1  0.250000  0.293936  0.464375  1
  H  H6  1  0.750000  0.568440  0.535625  1
  W  W7  1  0.250000  0.166757  0.537308  1
  W  W8  1  0.750000  0.695619  0.462692  1
