# generated using pymatgen
data_CdHgAsBr
_symmetry_space_group_name_H-M   'P 1'
_cell_length_a   4.73040678
_cell_length_b   10.98400170
_cell_length_c   29.69851600
_cell_angle_alpha   90.00000000
_cell_angle_beta   90.00000000
_cell_angle_gamma   90.00000000
_symmetry_Int_Tables_number   1
_chemical_formula_structural   CdHgAsBr
_chemical_formula_sum   'Cd4 Hg4 As4 Br4'
_cell_volume   1543.09913771
_cell_formula_units_Z   4
loop_
 _symmetry_equiv_pos_site_id
 _symmetry_equiv_pos_as_xyz
  1  'x, y, z'
loop_
 _atom_site_type_symbol
 _atom_site_label
 _atom_site_symmetry_multiplicity
 _atom_site_fract_x
 _atom_site_fract_y
 _atom_site_fract_z
 _atom_site_occupancy
  Cd  Cd1  1  0.500000  0.580493  0.402384  1
  Cd  Cd2  1  0.500000  0.919507  0.402384  1
  Cd  Cd3  1  0.500000  0.419507  0.597616  1
  Cd  Cd4  1  0.500000  0.080493  0.597616  1
  Hg  Hg5  1  -0.000000  0.250000  0.413393  1
  Hg  Hg6  1  0.000000  0.750000  0.586607  1
  Hg  Hg7  1  -0.000000  -0.000000  0.500000  1
  Hg  Hg8  1  -0.000000  0.500000  0.500000  1
  As  As9  1  0.000000  0.480386  0.414241  1
  As  As10  1  0.000000  0.519614  0.585759  1
  As  As11  1  -0.000000  0.019614  0.414241  1
  As  As12  1  -0.000000  0.980386  0.585759  1
  Br  Br13  1  0.500000  0.250000  0.662705  1
  Br  Br14  1  0.500000  0.750000  0.337295  1
  Br  Br15  1  0.500000  0.750000  0.475651  1
  Br  Br16  1  0.500000  0.250000  0.524349  1
