# generated using pymatgen
data_CuBiS2
_symmetry_space_group_name_H-M   'P 1'
_cell_length_a   3.87592500
_cell_length_b   6.17401566
_cell_length_c   25.43511500
_cell_angle_alpha   90.00000000
_cell_angle_beta   90.00000000
_cell_angle_gamma   90.00000000
_symmetry_Int_Tables_number   1
_chemical_formula_structural   CuBiS2
_chemical_formula_sum   'Cu2 Bi2 S4'
_cell_volume   608.66285254
_cell_formula_units_Z   2
loop_
 _symmetry_equiv_pos_site_id
 _symmetry_equiv_pos_as_xyz
  1  'x, y, z'
loop_
 _atom_site_type_symbol
 _atom_site_label
 _atom_site_symmetry_multiplicity
 _atom_site_fract_x
 _atom_site_fract_y
 _atom_site_fract_z
 _atom_site_occupancy
  Cu  Cu1  1  -0.000000  0.251824  0.544516  1
  Cu  Cu2  1  -0.000000  0.751824  0.455484  1
  Bi  Bi3  1  0.500000  0.257131  0.394576  1
  Bi  Bi4  1  0.500000  0.757131  0.605424  1
  S  S5  1  0.000000  0.379869  0.459727  1
  S  S6  1  0.000000  0.879869  0.540273  1
  S  S7  1  0.500000  0.357898  0.586194  1
  S  S8  1  0.500000  0.857898  0.413806  1
