# generated using pymatgen
data_Zr(IO3)4
_symmetry_space_group_name_H-M   'P 1'
_cell_length_a   8.41272790
_cell_length_b   8.41272790
_cell_length_c   26.72033600
_cell_angle_alpha   90.00000000
_cell_angle_beta   90.00000000
_cell_angle_gamma   90.00000000
_symmetry_Int_Tables_number   1
_chemical_formula_structural   Zr(IO3)4
_chemical_formula_sum   'Zr2 I8 O24'
_cell_volume   1891.10481208
_cell_formula_units_Z   2
loop_
 _symmetry_equiv_pos_site_id
 _symmetry_equiv_pos_as_xyz
  1  'x, y, z'
loop_
 _atom_site_type_symbol
 _atom_site_label
 _atom_site_symmetry_multiplicity
 _atom_site_fract_x
 _atom_site_fract_y
 _atom_site_fract_z
 _atom_site_occupancy
  Zr  Zr1  1  0.500000  0.000000  0.479708  1
  Zr  Zr2  1  0.000000  0.500000  0.520292  1
  I  I3  1  0.733218  0.778261  0.576856  1
  I  I4  1  0.721739  0.233218  0.576856  1
  I  I5  1  0.221739  0.733218  0.423144  1
  I  I6  1  0.233218  0.278261  0.423144  1
  I  I7  1  0.766782  0.721739  0.423144  1
  I  I8  1  0.778261  0.266782  0.423144  1
  I  I9  1  0.266782  0.221739  0.576856  1
  I  I10  1  0.278261  0.766782  0.576856  1
  O  O11  1  0.292161  0.911220  0.523658  1
  O  O12  1  0.411220  0.207839  0.523658  1
  O  O13  1  0.588780  0.792161  0.523658  1
  O  O14  1  0.707839  0.088780  0.523658  1
  O  O15  1  0.207839  0.588780  0.476342  1
  O  O16  1  0.088780  0.292161  0.476342  1
  O  O17  1  0.911220  0.707839  0.476342  1
  O  O18  1  0.792161  0.411220  0.476342  1
  O  O19  1  0.067371  0.710304  0.565317  1
  O  O20  1  0.210304  0.432629  0.565317  1
  O  O21  1  0.754009  0.087957  0.624505  1
  O  O22  1  0.587957  0.745991  0.624505  1
  O  O23  1  0.412043  0.254009  0.624505  1
  O  O24  1  0.245991  0.912043  0.624505  1
  O  O25  1  0.745991  0.412043  0.375495  1
  O  O26  1  0.912043  0.754009  0.375495  1
  O  O27  1  0.087957  0.245991  0.375495  1
  O  O28  1  0.254009  0.587957  0.375495  1
  O  O29  1  0.567371  0.210304  0.434683  1
  O  O30  1  0.710304  0.932629  0.434683  1
  O  O31  1  0.289696  0.067371  0.434683  1
  O  O32  1  0.432629  0.789696  0.434683  1
  O  O33  1  0.932629  0.289696  0.565317  1
  O  O34  1  0.789696  0.567371  0.565317  1
