# generated using pymatgen
data_CdNCl3
_symmetry_space_group_name_H-M   'P 1'
_cell_length_a   5.50890898
_cell_length_b   7.16571164
_cell_length_c   24.30665000
_cell_angle_alpha   90.00000000
_cell_angle_beta   90.00000000
_cell_angle_gamma   90.00000000
_symmetry_Int_Tables_number   1
_chemical_formula_structural   CdNCl3
_chemical_formula_sum   'Cd2 N2 Cl6'
_cell_volume   959.51116323
_cell_formula_units_Z   2
loop_
 _symmetry_equiv_pos_site_id
 _symmetry_equiv_pos_as_xyz
  1  'x, y, z'
loop_
 _atom_site_type_symbol
 _atom_site_label
 _atom_site_symmetry_multiplicity
 _atom_site_fract_x
 _atom_site_fract_y
 _atom_site_fract_z
 _atom_site_occupancy
  Cd  Cd1  1  0.500000  0.500000  0.500000  1
  Cd  Cd2  1  0.500000  -0.000000  0.500000  1
  N  N3  1  0.000973  0.750000  0.413981  1
  N  N4  1  -0.000973  0.250000  0.586019  1
  Cl  Cl5  1  0.678005  0.250000  0.580226  1
  Cl  Cl6  1  0.113588  0.250000  0.517367  1
  Cl  Cl7  1  0.584038  0.250000  0.429682  1
  Cl  Cl8  1  0.321995  0.750000  0.419774  1
  Cl  Cl9  1  0.886412  0.750000  0.482633  1
  Cl  Cl10  1  0.415962  0.750000  0.570318  1
