# generated using pymatgen
data_Li4V(TeO4)3
_symmetry_space_group_name_H-M   'P 1'
_cell_length_a   4.98430478
_cell_length_b   5.05140910
_cell_length_c   28.12737400
_cell_angle_alpha   90.00000000
_cell_angle_beta   90.00000000
_cell_angle_gamma   92.84778632
_symmetry_Int_Tables_number   1
_chemical_formula_structural   Li4V(TeO4)3
_chemical_formula_sum   'Li4 V1 Te3 O12'
_cell_volume   707.30976930
_cell_formula_units_Z   1
loop_
 _symmetry_equiv_pos_site_id
 _symmetry_equiv_pos_as_xyz
  1  'x, y, z'
loop_
 _atom_site_type_symbol
 _atom_site_label
 _atom_site_symmetry_multiplicity
 _atom_site_fract_x
 _atom_site_fract_y
 _atom_site_fract_z
 _atom_site_occupancy
  Li  Li1  1  -0.000000  -0.000000  0.360446  1
  Li  Li2  1  0.500000  -0.000000  0.620109  1
  Li  Li3  1  -0.000000  0.500000  0.471863  1
  Li  Li4  1  0.500000  0.500000  0.517552  1
  V  V5  1  -0.000000  -0.000000  0.535346  1
  Te  Te6  1  0.500000  -0.000000  0.440401  1
  Te  Te7  1  -0.000000  0.500000  0.596500  1
  Te  Te8  1  0.500000  0.500000  0.370547  1
  O  O9  1  0.742375  0.845946  0.483280  1
  O  O10  1  0.708351  0.843589  0.386152  1
  O  O11  1  0.783292  0.816511  0.578390  1
  O  O12  1  0.289074  0.667351  0.428703  1
  O  O13  1  0.186704  0.692433  0.533754  1
  O  O14  1  0.249989  0.678007  0.633340  1
  O  O15  1  0.750011  0.321993  0.633340  1
  O  O16  1  0.813296  0.307567  0.533754  1
  O  O17  1  0.710926  0.332649  0.428703  1
  O  O18  1  0.216708  0.183489  0.578390  1
  O  O19  1  0.291649  0.156411  0.386152  1
  O  O20  1  0.257625  0.154054  0.483280  1
