# generated using pymatgen
data_V6O13
_symmetry_space_group_name_H-M   'P 1'
_cell_length_a   3.67687092
_cell_length_b   11.90157859
_cell_length_c   28.59178034
_cell_angle_alpha   89.99486945
_cell_angle_beta   90.00000000
_cell_angle_gamma   90.00000000
_symmetry_Int_Tables_number   1
_chemical_formula_structural   V6O13
_chemical_formula_sum   'V12 O26'
_cell_volume   1251.19254922
_cell_formula_units_Z   2
loop_
 _symmetry_equiv_pos_site_id
 _symmetry_equiv_pos_as_xyz
  1  'x, y, z'
loop_
 _atom_site_type_symbol
 _atom_site_label
 _atom_site_symmetry_multiplicity
 _atom_site_fract_x
 _atom_site_fract_y
 _atom_site_fract_z
 _atom_site_occupancy
  V  V1  1  0.000000  0.347685  0.628623  1
  V  V2  1  0.500000  0.854607  0.370731  1
  V  V3  1  0.500000  0.854556  0.629267  1
  V  V4  1  0.000000  0.644823  0.370740  1
  V  V5  1  0.500000  0.151660  0.371379  1
  V  V6  1  0.500000  0.151603  0.628613  1
  V  V7  1  0.000000  0.347743  0.371377  1
  V  V8  1  -0.000000  0.644770  0.629265  1
  V  V9  1  0.500000  0.849968  0.500001  1
  V  V10  1  -0.000000  0.649467  0.500001  1
  V  V11  1  0.000000  0.351745  0.500000  1
  V  V12  1  0.500000  0.147691  0.499997  1
  O  O13  1  0.500000  0.854903  0.429203  1
  O  O14  1  0.500000  0.854874  0.570796  1
  O  O15  1  -0.000000  0.352820  0.430423  1
  O  O16  1  -0.000000  0.352793  0.569581  1
  O  O17  1  -0.000000  0.644521  0.570793  1
  O  O18  1  -0.000000  0.644560  0.429212  1
  O  O19  1  0.500000  0.146602  0.569569  1
  O  O20  1  0.500000  0.146634  0.430428  1
  O  O21  1  -0.000000  0.181201  0.500000  1
  O  O22  1  -0.000000  0.822070  0.500003  1
  O  O23  1  0.500000  0.677357  0.500002  1
  O  O24  1  0.500000  0.318267  0.500001  1
  O  O25  1  -0.000000  0.182895  0.354819  1
  O  O26  1  0.500000  0.684291  0.356466  1
  O  O27  1  0.500000  0.316493  0.354805  1
  O  O28  1  -0.000000  0.815131  0.356434  1
  O  O29  1  -0.000000  0.815080  0.643565  1
  O  O30  1  -0.000000  0.182825  0.645176  1
  O  O31  1  0.500000  0.316425  0.645193  1
  O  O32  1  0.500000  0.684239  0.643542  1
  O  O33  1  0.500000  0.993273  0.352271  1
  O  O34  1  0.500000  0.993217  0.647725  1
  O  O35  1  -0.000000  0.506097  0.647720  1
  O  O36  1  -0.000000  0.506159  0.352283  1
  O  O37  1  0.500000  0.003362  0.500000  1
  O  O38  1  -0.000000  0.496078  0.500000  1
