# generated using pymatgen
data_As3(HO2)5
_symmetry_space_group_name_H-M   'P 1'
_cell_length_a   4.75207339
_cell_length_b   7.49662420
_cell_length_c   26.99025870
_cell_angle_alpha   90.24131617
_cell_angle_beta   90.00970692
_cell_angle_gamma   84.55502389
_symmetry_Int_Tables_number   1
_chemical_formula_structural   As3(HO2)5
_chemical_formula_sum   'As3 H5 O10'
_cell_volume   957.16761950
_cell_formula_units_Z   1
loop_
 _symmetry_equiv_pos_site_id
 _symmetry_equiv_pos_as_xyz
  1  'x, y, z'
loop_
 _atom_site_type_symbol
 _atom_site_label
 _atom_site_symmetry_multiplicity
 _atom_site_fract_x
 _atom_site_fract_y
 _atom_site_fract_z
 _atom_site_occupancy
  As  As1  1  0.500000  0.000000  0.500000  1
  As  As2  1  0.022380  0.766757  0.449907  1
  As  As3  1  0.977620  0.233243  0.550093  1
  H  H4  1  0.036462  0.710826  0.367238  1
  H  H5  1  0.963538  0.289174  0.632762  1
  H  H6  1  0.000000  0.500000  0.500000  1
  H  H7  1  0.606081  0.790311  0.561746  1
  H  H8  1  0.393919  0.209690  0.438254  1
  O  O9  1  0.922086  0.559702  0.459948  1
  O  O10  1  0.158541  0.774207  0.389035  1
  O  O11  1  0.841459  0.225793  0.610965  1
  O  O12  1  0.301503  0.798211  0.488550  1
  O  O13  1  0.252047  0.063481  0.552994  1
  O  O14  1  0.747953  0.936519  0.447006  1
  O  O15  1  0.276823  0.134194  0.457423  1
  O  O16  1  0.723177  0.865806  0.542577  1
  O  O17  1  0.698497  0.201789  0.511450  1
  O  O18  1  0.077914  0.440298  0.540052  1
