# generated using pymatgen
data_Na2SnO6
_symmetry_space_group_name_H-M   'P 1'
_cell_length_a   6.44289253
_cell_length_b   6.44289304
_cell_length_c   21.69387280
_cell_angle_alpha   90.00000000
_cell_angle_beta   90.00000000
_cell_angle_gamma   60.00000777
_symmetry_Int_Tables_number   1
_chemical_formula_structural   Na2SnO6
_chemical_formula_sum   'Na2 Sn1 O6'
_cell_volume   779.88319818
_cell_formula_units_Z   1
loop_
 _symmetry_equiv_pos_site_id
 _symmetry_equiv_pos_as_xyz
  1  'x, y, z'
loop_
 _atom_site_type_symbol
 _atom_site_label
 _atom_site_symmetry_multiplicity
 _atom_site_fract_x
 _atom_site_fract_y
 _atom_site_fract_z
 _atom_site_occupancy
  Na  Na1  1  0.000000  -0.000000  0.505643  1
  Na  Na2  1  0.333333  0.333333  0.494357  1
  Sn  Sn3  1  0.666667  0.666667  0.500000  1
  O  O4  1  0.678029  0.368696  0.462459  1
  O  O5  1  0.953275  0.678029  0.462459  1
  O  O6  1  0.368696  0.953275  0.462459  1
  O  O7  1  0.655304  0.964637  0.537541  1
  O  O8  1  0.380058  0.655304  0.537541  1
  O  O9  1  0.964637  0.380058  0.537541  1
