# generated using pymatgen
data_As2SO6
_symmetry_space_group_name_H-M   'P 1'
_cell_length_a   4.76894391
_cell_length_b   11.28500663
_cell_length_c   23.36856417
_cell_angle_alpha   90.00000000
_cell_angle_beta   90.00000000
_cell_angle_gamma   90.00000000
_symmetry_Int_Tables_number   1
_chemical_formula_structural   As2SO6
_chemical_formula_sum   'As4 S2 O12'
_cell_volume   1257.63918945
_cell_formula_units_Z   2
loop_
 _symmetry_equiv_pos_site_id
 _symmetry_equiv_pos_as_xyz
  1  'x, y, z'
loop_
 _atom_site_type_symbol
 _atom_site_label
 _atom_site_symmetry_multiplicity
 _atom_site_fract_x
 _atom_site_fract_y
 _atom_site_fract_z
 _atom_site_occupancy
  As  As1  1  0.769009  0.307110  0.462668  1
  As  As2  1  0.230991  0.692890  0.462668  1
  As  As3  1  0.269009  0.192890  0.537332  1
  As  As4  1  0.730991  0.807110  0.537332  1
  S  S5  1  -0.000000  0.000000  0.456483  1
  S  S6  1  0.500000  0.500000  0.543517  1
  O  O7  1  0.887386  0.097871  0.423991  1
  O  O8  1  0.112614  0.902129  0.423991  1
  O  O9  1  0.387386  0.402129  0.576009  1
  O  O10  1  0.612614  0.597871  0.576009  1
  O  O11  1  0.411596  0.261736  0.473009  1
  O  O12  1  0.588404  0.738264  0.473009  1
  O  O13  1  0.268293  0.542300  0.502139  1
  O  O14  1  0.731707  0.457700  0.502139  1
  O  O15  1  0.768293  0.957700  0.497861  1
  O  O16  1  0.231707  0.042300  0.497861  1
  O  O17  1  0.088404  0.761736  0.526991  1
  O  O18  1  0.911596  0.238264  0.526991  1
