# generated using pymatgen
data_Hg2P2S7
_symmetry_space_group_name_H-M   'P 1'
_cell_length_a   6.03411247
_cell_length_b   6.22371936
_cell_length_c   25.17689596
_cell_angle_alpha   90.91478401
_cell_angle_beta   89.99999996
_cell_angle_gamma   118.99723903
_symmetry_Int_Tables_number   1
_chemical_formula_structural   Hg2P2S7
_chemical_formula_sum   'Hg2 P2 S7'
_cell_volume   826.84495776
_cell_formula_units_Z   1
loop_
 _symmetry_equiv_pos_site_id
 _symmetry_equiv_pos_as_xyz
  1  'x, y, z'
loop_
 _atom_site_type_symbol
 _atom_site_label
 _atom_site_symmetry_multiplicity
 _atom_site_fract_x
 _atom_site_fract_y
 _atom_site_fract_z
 _atom_site_occupancy
  Hg  Hg1  1  0.147692  0.565051  0.582341  1
  Hg  Hg2  1  0.582641  0.434949  0.417659  1
  P  P3  1  0.928515  0.092871  0.433001  1
  P  P4  1  0.835644  0.907129  0.566999  1
  S  S5  1  0.723544  0.157592  0.583141  1
  S  S6  1  0.565953  0.842408  0.416859  1
  S  S7  1  0.968866  0.436435  0.451849  1
  S  S8  1  0.532431  0.563565  0.548151  1
  S  S9  1  0.089040  1.000000  0.500000  1
  S  S10  1  0.174096  0.109917  0.375157  1
  S  S11  1  0.064179  0.890083  0.624843  1
