# generated using pymatgen
data_SrH2O3
_symmetry_space_group_name_H-M   'P 1'
_cell_length_a   3.69666768
_cell_length_b   5.95376194
_cell_length_c   21.11606603
_cell_angle_alpha   89.95471411
_cell_angle_beta   90.00000000
_cell_angle_gamma   90.00000000
_symmetry_Int_Tables_number   1
_chemical_formula_structural   SrH2O3
_chemical_formula_sum   'Sr2 H4 O6'
_cell_volume   464.74502708
_cell_formula_units_Z   2
loop_
 _symmetry_equiv_pos_site_id
 _symmetry_equiv_pos_as_xyz
  1  'x, y, z'
loop_
 _atom_site_type_symbol
 _atom_site_label
 _atom_site_symmetry_multiplicity
 _atom_site_fract_x
 _atom_site_fract_y
 _atom_site_fract_z
 _atom_site_occupancy
  Sr  Sr1  1  -0.000000  0.251369  0.456358  1
  Sr  Sr2  1  -0.000000  0.751077  0.543651  1
  H  H3  1  0.786927  0.269547  0.591864  1
  H  H4  1  0.213073  0.269547  0.591864  1
  H  H5  1  0.212709  0.769777  0.408163  1
  H  H6  1  0.787291  0.769777  0.408163  1
  O  O7  1  -0.000000  0.165209  0.584117  1
  O  O8  1  -0.000000  0.666232  0.415830  1
  O  O9  1  0.500000  0.986574  0.414639  1
  O  O10  1  0.500000  0.486164  0.585358  1
  O  O11  1  0.500000  0.492543  0.513301  1
  O  O12  1  0.500000  0.992590  0.486690  1
