# generated using pymatgen
data_CdSnO3
_symmetry_space_group_name_H-M   'P 1'
_cell_length_a   5.60515498
_cell_length_b   5.60515535
_cell_length_c   22.11745168
_cell_angle_alpha   90.00000000
_cell_angle_beta   90.00000000
_cell_angle_gamma   60.00000222
_symmetry_Int_Tables_number   1
_chemical_formula_structural   CdSnO3
_chemical_formula_sum   'Cd2 Sn2 O6'
_cell_volume   601.78451395
_cell_formula_units_Z   2
loop_
 _symmetry_equiv_pos_site_id
 _symmetry_equiv_pos_as_xyz
  1  'x, y, z'
loop_
 _atom_site_type_symbol
 _atom_site_label
 _atom_site_symmetry_multiplicity
 _atom_site_fract_x
 _atom_site_fract_y
 _atom_site_fract_z
 _atom_site_occupancy
  Cd  Cd1  1  0.000000  -0.000000  0.572125  1
  Cd  Cd2  1  0.000000  -0.000000  0.427875  1
  Sn  Sn3  1  0.666667  0.666667  0.500036  1
  Sn  Sn4  1  0.333333  0.333333  0.499964  1
  O  O5  1  0.373397  0.626514  0.551468  1
  O  O6  1  0.373486  0.999910  0.448532  1
  O  O7  1  0.999910  0.626603  0.448532  1
  O  O8  1  0.000090  0.373397  0.551468  1
  O  O9  1  0.626514  0.000090  0.551468  1
  O  O10  1  0.626603  0.373486  0.448532  1
