# generated using pymatgen
data_HfGeTe4
_symmetry_space_group_name_H-M   'P 1'
_cell_length_a   4.00514965
_cell_length_b   11.05880647
_cell_length_c   27.55099400
_cell_angle_alpha   90.00000000
_cell_angle_beta   90.00000000
_cell_angle_gamma   90.00000000
_symmetry_Int_Tables_number   1
_chemical_formula_structural   HfGeTe4
_chemical_formula_sum   'Hf2 Ge2 Te8'
_cell_volume   1220.29344389
_cell_formula_units_Z   2
loop_
 _symmetry_equiv_pos_site_id
 _symmetry_equiv_pos_as_xyz
  1  'x, y, z'
loop_
 _atom_site_type_symbol
 _atom_site_label
 _atom_site_symmetry_multiplicity
 _atom_site_fract_x
 _atom_site_fract_y
 _atom_site_fract_z
 _atom_site_occupancy
  Hf  Hf1  1  -0.000000  0.726475  0.442339  1
  Hf  Hf2  1  0.500000  0.226475  0.557661  1
  Ge  Ge3  1  0.000000  0.538641  0.513464  1
  Ge  Ge4  1  0.500000  0.038641  0.486536  1
  Te  Te5  1  0.000000  0.302199  0.484837  1
  Te  Te6  1  0.000000  0.001337  0.421560  1
  Te  Te7  1  0.500000  0.802199  0.515163  1
  Te  Te8  1  0.500000  0.760782  0.364561  1
  Te  Te9  1  -0.000000  0.038407  0.588969  1
  Te  Te10  1  0.500000  0.538407  0.411031  1
  Te  Te11  1  -0.000000  0.260782  0.635439  1
  Te  Te12  1  0.500000  0.501337  0.578440  1
