# generated using pymatgen
data_LaMg2
_symmetry_space_group_name_H-M   'P 1'
_cell_length_a   3.30455639
_cell_length_b   6.24092337
_cell_length_c   26.03529800
_cell_angle_alpha   90.00000000
_cell_angle_beta   90.00000000
_cell_angle_gamma   74.64796132
_symmetry_Int_Tables_number   1
_chemical_formula_structural   LaMg2
_chemical_formula_sum   'La2 Mg4'
_cell_volume   517.77914596
_cell_formula_units_Z   2
loop_
 _symmetry_equiv_pos_site_id
 _symmetry_equiv_pos_as_xyz
  1  'x, y, z'
loop_
 _atom_site_type_symbol
 _atom_site_label
 _atom_site_symmetry_multiplicity
 _atom_site_fract_x
 _atom_site_fract_y
 _atom_site_fract_z
 _atom_site_occupancy
  La  La1  1  0.364478  0.271044  0.484835  1
  La  La2  1  0.635522  0.728956  0.515165  1
  Mg  Mg3  1  0.749918  0.500164  0.384441  1
  Mg  Mg4  1  0.028144  0.943711  0.399874  1
  Mg  Mg5  1  0.971856  0.056289  0.600126  1
  Mg  Mg6  1  0.250082  0.499836  0.615559  1
