# generated using pymatgen
data_MnSbS2Cl
_symmetry_space_group_name_H-M   'P 1'
_cell_length_a   3.66651041
_cell_length_b   9.95385917
_cell_length_c   25.27745200
_cell_angle_alpha   90.00000000
_cell_angle_beta   90.00000000
_cell_angle_gamma   90.00000000
_symmetry_Int_Tables_number   1
_chemical_formula_structural   MnSbS2Cl
_chemical_formula_sum   'Mn2 Sb2 S4 Cl2'
_cell_volume   922.52407495
_cell_formula_units_Z   2
loop_
 _symmetry_equiv_pos_site_id
 _symmetry_equiv_pos_as_xyz
  1  'x, y, z'
loop_
 _atom_site_type_symbol
 _atom_site_label
 _atom_site_symmetry_multiplicity
 _atom_site_fract_x
 _atom_site_fract_y
 _atom_site_fract_z
 _atom_site_occupancy
  Mn  Mn1  1  0.000000  0.996026  0.506284  1
  Mn  Mn2  1  0.000000  0.496026  0.493716  1
  Sb  Sb3  1  0.500000  0.320396  0.596745  1
  Sb  Sb4  1  0.500000  0.820396  0.403255  1
  S  S5  1  0.000000  0.745762  0.466866  1
  S  S6  1  0.500000  0.545829  0.564140  1
  S  S7  1  0.000000  0.245762  0.533134  1
  S  S8  1  0.500000  0.045829  0.435860  1
  Cl  Cl9  1  0.500000  0.439625  0.432137  1
  Cl  Cl10  1  0.500000  0.939625  0.567863  1
