# generated using pymatgen
data_MgPSe3
_symmetry_space_group_name_H-M   'P 1'
_cell_length_a   6.44616245
_cell_length_b   6.44616248
_cell_length_c   23.42040539
_cell_angle_alpha   90.00000000
_cell_angle_beta   90.00000000
_cell_angle_gamma   60.00000010
_symmetry_Int_Tables_number   1
_chemical_formula_structural   MgPSe3
_chemical_formula_sum   'Mg2 P2 Se6'
_cell_volume   842.80583603
_cell_formula_units_Z   2
loop_
 _symmetry_equiv_pos_site_id
 _symmetry_equiv_pos_as_xyz
  1  'x, y, z'
loop_
 _atom_site_type_symbol
 _atom_site_label
 _atom_site_symmetry_multiplicity
 _atom_site_fract_x
 _atom_site_fract_y
 _atom_site_fract_z
 _atom_site_occupancy
  Mg  Mg1  1  0.666667  0.666667  0.499561  1
  Mg  Mg2  1  0.333333  0.333333  0.500439  1
  P  P3  1  0.000000  -0.000000  0.547819  1
  P  P4  1  0.000000  0.000000  0.452181  1
  Se  Se5  1  0.332458  0.997864  0.573832  1
  Se  Se6  1  0.997864  0.669679  0.573832  1
  Se  Se7  1  0.669679  0.332458  0.573832  1
  Se  Se8  1  0.667542  0.002136  0.426168  1
  Se  Se9  1  0.002136  0.330321  0.426168  1
  Se  Se10  1  0.330321  0.667542  0.426168  1
