# generated using pymatgen
data_SnO
_symmetry_space_group_name_H-M   'P 1'
_cell_length_a   3.50190202
_cell_length_b   3.50190277
_cell_length_c   22.78906100
_cell_angle_alpha   90.00000000
_cell_angle_beta   90.00000000
_cell_angle_gamma   98.65070055
_symmetry_Int_Tables_number   1
_chemical_formula_structural   SnO
_chemical_formula_sum   'Sn2 O2'
_cell_volume   276.29021868
_cell_formula_units_Z   2
loop_
 _symmetry_equiv_pos_site_id
 _symmetry_equiv_pos_as_xyz
  1  'x, y, z'
loop_
 _atom_site_type_symbol
 _atom_site_label
 _atom_site_symmetry_multiplicity
 _atom_site_fract_x
 _atom_site_fract_y
 _atom_site_fract_z
 _atom_site_occupancy
  Sn  Sn1  1  0.019625  0.980375  0.438689  1
  Sn  Sn2  1  0.383544  0.616456  0.561314  1
  O  O3  1  0.419304  0.580696  0.466686  1
  O  O4  1  0.984294  0.015706  0.533311  1
