# generated using pymatgen
data_KFe2Se3
_symmetry_space_group_name_H-M   'P 1'
_cell_length_a   5.34565704
_cell_length_b   8.83353867
_cell_length_c   23.80545100
_cell_angle_alpha   90.00000000
_cell_angle_beta   90.00000000
_cell_angle_gamma   90.00000000
_symmetry_Int_Tables_number   1
_chemical_formula_structural   KFe2Se3
_chemical_formula_sum   'K2 Fe4 Se6'
_cell_volume   1124.11882471
_cell_formula_units_Z   2
loop_
 _symmetry_equiv_pos_site_id
 _symmetry_equiv_pos_as_xyz
  1  'x, y, z'
loop_
 _atom_site_type_symbol
 _atom_site_label
 _atom_site_symmetry_multiplicity
 _atom_site_fract_x
 _atom_site_fract_y
 _atom_site_fract_z
 _atom_site_occupancy
  K  K1  1  0.750000  0.500000  0.430788  1
  K  K2  1  0.250000  0.500000  0.569212  1
  Fe  Fe3  1  0.500000  0.145776  0.500000  1
  Fe  Fe4  1  0.000000  0.145776  0.500000  1
  Fe  Fe5  1  0.500000  0.854224  0.500000  1
  Fe  Fe6  1  0.000000  0.854224  0.500000  1
  Se  Se7  1  0.750000  0.000000  0.442015  1
  Se  Se8  1  0.250000  0.000000  0.557985  1
  Se  Se9  1  0.750000  0.290605  0.554808  1
  Se  Se10  1  0.250000  0.290605  0.445192  1
  Se  Se11  1  0.250000  0.709395  0.445192  1
  Se  Se12  1  0.750000  0.709395  0.554808  1
