# generated using pymatgen
data_KH2N
_symmetry_space_group_name_H-M   'P 1'
_cell_length_a   3.71016423
_cell_length_b   4.49999603
_cell_length_c   24.61125800
_cell_angle_alpha   90.00000000
_cell_angle_beta   90.00000000
_cell_angle_gamma   90.00000000
_symmetry_Int_Tables_number   1
_chemical_formula_structural   KH2N
_chemical_formula_sum   'K2 H4 N2'
_cell_volume   410.90277838
_cell_formula_units_Z   2
loop_
 _symmetry_equiv_pos_site_id
 _symmetry_equiv_pos_as_xyz
  1  'x, y, z'
loop_
 _atom_site_type_symbol
 _atom_site_label
 _atom_site_symmetry_multiplicity
 _atom_site_fract_x
 _atom_site_fract_y
 _atom_site_fract_z
 _atom_site_occupancy
  K  K1  1  0.750000  0.508847  0.546869  1
  K  K2  1  0.250000  0.008315  0.453131  1
  H  H3  1  0.462438  0.010298  0.593464  1
  H  H4  1  0.962438  0.506864  0.406536  1
  H  H5  1  0.037562  0.010298  0.593464  1
  H  H6  1  0.537562  0.506864  0.406536  1
  N  N7  1  0.250000  0.015350  0.566472  1
  N  N8  1  0.750000  0.501812  0.433528  1
