# generated using pymatgen
data_ScPS4
_symmetry_space_group_name_H-M   'P 1'
_cell_length_a   6.24667848
_cell_length_b   6.50621284
_cell_length_c   24.87913000
_cell_angle_alpha   90.00000000
_cell_angle_beta   90.00000000
_cell_angle_gamma   80.91927321
_symmetry_Int_Tables_number   1
_chemical_formula_structural   ScPS4
_chemical_formula_sum   'Sc2 P2 S8'
_cell_volume   998.47036424
_cell_formula_units_Z   2
loop_
 _symmetry_equiv_pos_site_id
 _symmetry_equiv_pos_as_xyz
  1  'x, y, z'
loop_
 _atom_site_type_symbol
 _atom_site_label
 _atom_site_symmetry_multiplicity
 _atom_site_fract_x
 _atom_site_fract_y
 _atom_site_fract_z
 _atom_site_occupancy
  Sc  Sc1  1  0.295511  0.800380  0.482789  1
  Sc  Sc2  1  0.704489  0.199620  0.517211  1
  P  P3  1  0.190540  0.247381  0.550945  1
  P  P4  1  0.809460  0.752619  0.449055  1
  S  S5  1  0.075627  0.713078  0.401843  1
  S  S6  1  0.924373  0.286922  0.598157  1
  S  S7  1  0.382130  0.477794  0.556546  1
  S  S8  1  0.617870  0.522206  0.443454  1
  S  S9  1  0.093349  0.205945  0.472764  1
  S  S10  1  0.906651  0.794055  0.527236  1
  S  S11  1  0.421197  0.991240  0.569311  1
  S  S12  1  0.578803  0.008760  0.430689  1
