# generated using pymatgen
data_MnCoO4
_symmetry_space_group_name_H-M   'P 1'
_cell_length_a   2.91084709
_cell_length_b   5.04776404
_cell_length_c   22.01687232
_cell_angle_alpha   89.13611533
_cell_angle_beta   89.99988061
_cell_angle_gamma   89.99068739
_symmetry_Int_Tables_number   1
_chemical_formula_structural   MnCoO4
_chemical_formula_sum   'Mn1 Co1 O4'
_cell_volume   323.46305835
_cell_formula_units_Z   1
loop_
 _symmetry_equiv_pos_site_id
 _symmetry_equiv_pos_as_xyz
  1  'x, y, z'
loop_
 _atom_site_type_symbol
 _atom_site_label
 _atom_site_symmetry_multiplicity
 _atom_site_fract_x
 _atom_site_fract_y
 _atom_site_fract_z
 _atom_site_occupancy
  Mn  Mn1  1  0.500016  0.499839  0.500042  1
  Co  Co2  1  0.000014  0.000094  0.500011  1
  O  O3  1  0.499836  0.833068  0.542554  1
  O  O4  1  0.000028  0.660246  0.454948  1
  O  O5  1  0.000001  0.339827  0.545010  1
  O  O6  1  0.500195  0.166915  0.457435  1
