# generated using pymatgen
data_CdBiSe2Br
_symmetry_space_group_name_H-M   'P 1'
_cell_length_a   3.97390708
_cell_length_b   11.99594110
_cell_length_c   25.91325700
_cell_angle_alpha   90.00000000
_cell_angle_beta   90.00000000
_cell_angle_gamma   90.00000000
_symmetry_Int_Tables_number   1
_chemical_formula_structural   CdBiSe2Br
_chemical_formula_sum   'Cd2 Bi2 Se4 Br2'
_cell_volume   1235.30453266
_cell_formula_units_Z   2
loop_
 _symmetry_equiv_pos_site_id
 _symmetry_equiv_pos_as_xyz
  1  'x, y, z'
loop_
 _atom_site_type_symbol
 _atom_site_label
 _atom_site_symmetry_multiplicity
 _atom_site_fract_x
 _atom_site_fract_y
 _atom_site_fract_z
 _atom_site_occupancy
  Cd  Cd1  1  0.500000  0.491426  0.504182  1
  Cd  Cd2  1  0.500000  0.991426  0.495818  1
  Bi  Bi3  1  -0.000000  0.218315  0.578686  1
  Bi  Bi4  1  -0.000000  0.718315  0.421314  1
  Se  Se5  1  0.500000  0.250912  0.506210  1
  Se  Se6  1  0.500000  0.750912  0.493790  1
  Se  Se7  1  0.000000  0.496354  0.429750  1
  Se  Se8  1  0.000000  0.996354  0.570250  1
  Br  Br9  1  0.000000  0.507674  0.580156  1
  Br  Br10  1  0.000000  0.007674  0.419844  1
