# generated using pymatgen
data_B2(CN2)3
_symmetry_space_group_name_H-M   'P 1'
_cell_length_a   8.30124670
_cell_length_b   8.29839862
_cell_length_c   20.99753800
_cell_angle_alpha   90.00000000
_cell_angle_beta   90.00000000
_cell_angle_gamma   60.11076142
_symmetry_Int_Tables_number   1
_chemical_formula_structural   B2(CN2)3
_chemical_formula_sum   'B2 C3 N6'
_cell_volume   1254.06560818
_cell_formula_units_Z   1
loop_
 _symmetry_equiv_pos_site_id
 _symmetry_equiv_pos_as_xyz
  1  'x, y, z'
loop_
 _atom_site_type_symbol
 _atom_site_label
 _atom_site_symmetry_multiplicity
 _atom_site_fract_x
 _atom_site_fract_y
 _atom_site_fract_z
 _atom_site_occupancy
  B  B1  1  0.668367  0.663645  0.506754  1
  B  B2  1  0.334535  0.329898  0.493306  1
  C  C3  1  0.586014  0.997063  0.499884  1
  C  C4  1  0.417007  0.581409  0.499870  1
  C  C5  1  0.001484  0.411410  0.500177  1
  N  N6  1  0.322832  0.507897  0.493368  1
  N  N7  1  0.490369  0.675696  0.506449  1
  N  N8  1  0.680286  0.829758  0.506706  1
  N  N9  1  0.512575  0.164344  0.493086  1
  N  N10  1  0.168826  0.317017  0.493685  1
  N  N11  1  0.834052  0.485752  0.506714  1
