# generated using pymatgen
data_VZnO2
_symmetry_space_group_name_H-M   'P 1'
_cell_length_a   2.90601866
_cell_length_b   7.35194141
_cell_length_c   29.30338647
_cell_angle_alpha   89.87147465
_cell_angle_beta   89.34295354
_cell_angle_gamma   101.64242711
_symmetry_Int_Tables_number   1
_chemical_formula_structural   VZnO2
_chemical_formula_sum   'V4 Zn4 O8'
_cell_volume   613.13577279
_cell_formula_units_Z   4
loop_
 _symmetry_equiv_pos_site_id
 _symmetry_equiv_pos_as_xyz
  1  'x, y, z'
loop_
 _atom_site_type_symbol
 _atom_site_label
 _atom_site_symmetry_multiplicity
 _atom_site_fract_x
 _atom_site_fract_y
 _atom_site_fract_z
 _atom_site_occupancy
  V  V1  1  0.787150  0.107034  0.547628  1
  V  V2  1  0.455503  0.405331  0.466685  1
  V  V3  1  0.432627  0.447960  0.621500  1
  V  V4  1  0.100009  0.743158  0.540200  1
  Zn  Zn5  1  0.560786  0.862226  0.437934  1
  Zn  Zn6  1  0.465472  0.071739  0.345500  1
  Zn  Zn7  1  0.847088  0.754380  0.361408  1
  Zn  Zn8  1  0.010812  0.408472  0.357114  1
  O  O9  1  0.533992  0.617742  0.570979  1
  O  O10  1  0.881874  0.291779  0.595000  1
  O  O11  1  0.034671  0.568081  0.488431  1
  O  O12  1  0.350335  0.223662  0.507410  1
  O  O13  1  0.209539  0.955475  0.575230  1
  O  O14  1  0.934722  0.346287  0.425420  1
  O  O15  1  0.671217  0.877018  0.504850  1
  O  O16  1  0.929100  0.530580  0.654712  1
