# generated using pymatgen
data_SnO2
_symmetry_space_group_name_H-M   'P 1'
_cell_length_a   6.44375053
_cell_length_b   6.44546213
_cell_length_c   35.30534200
_cell_angle_alpha   90.00000000
_cell_angle_beta   90.00000000
_cell_angle_gamma   119.99806093
_symmetry_Int_Tables_number   1
_chemical_formula_structural   SnO2
_chemical_formula_sum   'Sn12 O24'
_cell_volume   1269.90817724
_cell_formula_units_Z   12
loop_
 _symmetry_equiv_pos_site_id
 _symmetry_equiv_pos_as_xyz
  1  'x, y, z'
loop_
 _atom_site_type_symbol
 _atom_site_label
 _atom_site_symmetry_multiplicity
 _atom_site_fract_x
 _atom_site_fract_y
 _atom_site_fract_z
 _atom_site_occupancy
  Sn  Sn1  1  0.343317  0.649940  0.663491  1
  Sn  Sn2  1  0.497194  0.998281  0.518433  1
  Sn  Sn3  1  0.163063  0.830853  0.592410  1
  Sn  Sn4  1  0.343271  0.191407  0.663479  1
  Sn  Sn5  1  0.997598  0.998249  0.518377  1
  Sn  Sn6  1  0.801980  0.649965  0.663492  1
  Sn  Sn7  1  0.831449  0.166002  0.444820  1
  Sn  Sn8  1  0.997648  0.498674  0.518418  1
  Sn  Sn9  1  0.666710  0.332148  0.370417  1
  Sn  Sn10  1  0.666711  0.833923  0.370527  1
  Sn  Sn11  1  0.164747  0.331988  0.370571  1
  Sn  Sn12  1  0.166383  0.832781  0.313200  1
  O  O13  1  0.656748  0.336516  0.691799  1
  O  O14  1  0.656609  0.817772  0.691888  1
  O  O15  1  0.496290  0.497228  0.628850  1
  O  O16  1  0.175588  0.336824  0.691864  1
  O  O17  1  0.308236  0.687259  0.552818  1
  O  O18  1  0.439378  0.968721  0.633052  1
  O  O19  1  0.167333  0.832801  0.260839  1
  O  O20  1  0.024780  0.554254  0.633028  1
  O  O21  1  0.307993  0.119838  0.552843  1
  O  O22  1  0.164254  0.831773  0.488580  1
  O  O23  1  0.874937  0.687081  0.552747  1
  O  O24  1  0.024613  0.968682  0.633058  1
  O  O25  1  0.974971  0.023539  0.405492  1
  O  O26  1  0.120337  0.310003  0.484014  1
  O  O27  1  0.830762  0.164960  0.548054  1
  O  O28  1  0.686476  0.876497  0.483931  1
  O  O29  1  0.832855  0.165908  0.339996  1
  O  O30  1  0.975016  0.451323  0.405413  1
  O  O31  1  0.546944  0.023422  0.405342  1
  O  O32  1  0.686332  0.309915  0.484008  1
  O  O33  1  0.834821  0.667177  0.342309  1
  O  O34  1  0.331658  0.164141  0.342327  1
  O  O35  1  0.499541  0.499303  0.397766  1
  O  O36  1  0.331873  0.666779  0.342347  1
