# generated using pymatgen
data_ZrCl3
_symmetry_space_group_name_H-M   'P 1'
_cell_length_a   6.08191437
_cell_length_b   6.23415390
_cell_length_c   23.17518700
_cell_angle_alpha   90.00000000
_cell_angle_beta   90.00000000
_cell_angle_gamma   60.80707180
_symmetry_Int_Tables_number   1
_chemical_formula_structural   ZrCl3
_chemical_formula_sum   'Zr2 Cl6'
_cell_volume   767.09031279
_cell_formula_units_Z   2
loop_
 _symmetry_equiv_pos_site_id
 _symmetry_equiv_pos_as_xyz
  1  'x, y, z'
loop_
 _atom_site_type_symbol
 _atom_site_label
 _atom_site_symmetry_multiplicity
 _atom_site_fract_x
 _atom_site_fract_y
 _atom_site_fract_z
 _atom_site_occupancy
  Zr  Zr1  1  0.319554  0.360874  0.499998  1
  Zr  Zr2  1  0.680446  0.639126  0.500002  1
  Cl  Cl3  1  0.333486  0.999948  0.558751  1
  Cl  Cl4  1  0.998306  0.334201  0.430893  1
  Cl  Cl5  1  0.667651  0.334021  0.569070  1
  Cl  Cl6  1  0.332349  0.665979  0.430930  1
  Cl  Cl7  1  0.001694  0.665799  0.569107  1
  Cl  Cl8  1  0.666514  0.000052  0.441249  1
