# generated using pymatgen
data_Ba2Ti3O8
_symmetry_space_group_name_H-M   'P 1'
_cell_length_a   3.94255777
_cell_length_b   3.94261657
_cell_length_c   28.25445800
_cell_angle_alpha   90.00000000
_cell_angle_beta   90.00000000
_cell_angle_gamma   90.00000000
_symmetry_Int_Tables_number   1
_chemical_formula_structural   Ba2Ti3O8
_chemical_formula_sum   'Ba2 Ti3 O8'
_cell_volume   439.18711410
_cell_formula_units_Z   1
loop_
 _symmetry_equiv_pos_site_id
 _symmetry_equiv_pos_as_xyz
  1  'x, y, z'
loop_
 _atom_site_type_symbol
 _atom_site_label
 _atom_site_symmetry_multiplicity
 _atom_site_fract_x
 _atom_site_fract_y
 _atom_site_fract_z
 _atom_site_occupancy
  Ba  Ba1  1  0.500000  0.500057  0.425249  1
  Ba  Ba2  1  0.500000  0.500057  0.574751  1
  Ti  Ti3  1  -0.000000  0.999782  0.359710  1
  Ti  Ti4  1  -0.000000  0.001026  0.500000  1
  Ti  Ti5  1  -0.000000  0.999782  0.640290  1
  O  O6  1  0.000000  0.500189  0.355498  1
  O  O7  1  0.500000  0.000095  0.355498  1
  O  O8  1  0.500000  0.999559  0.500000  1
  O  O9  1  0.000000  0.999938  0.427646  1
  O  O10  1  0.000000  0.500189  0.644502  1
  O  O11  1  0.500000  0.000095  0.644502  1
  O  O12  1  0.000000  0.999938  0.572354  1
  O  O13  1  0.000000  0.499299  0.500000  1
