# generated using pymatgen
data_Ag2SO4
_symmetry_space_group_name_H-M   'P 1'
_cell_length_a   4.94959204
_cell_length_b   6.29011917
_cell_length_c   21.76230900
_cell_angle_alpha   90.00000000
_cell_angle_beta   90.00000000
_cell_angle_gamma   113.16883061
_symmetry_Int_Tables_number   1
_chemical_formula_structural   Ag2SO4
_chemical_formula_sum   'Ag2 S1 O4'
_cell_volume   622.89364453
_cell_formula_units_Z   1
loop_
 _symmetry_equiv_pos_site_id
 _symmetry_equiv_pos_as_xyz
  1  'x, y, z'
loop_
 _atom_site_type_symbol
 _atom_site_label
 _atom_site_symmetry_multiplicity
 _atom_site_fract_x
 _atom_site_fract_y
 _atom_site_fract_z
 _atom_site_occupancy
  Ag  Ag1  1  0.500000  0.500000  0.536295  1
  Ag  Ag2  1  -0.000000  0.500000  0.463705  1
  S  S3  1  -0.000000  -0.000000  0.500000  1
  O  O4  1  0.100148  0.855477  0.459254  1
  O  O5  1  0.244670  0.144523  0.540746  1
  O  O6  1  0.755331  0.855477  0.540746  1
  O  O7  1  0.899852  0.144523  0.459254  1
