# generated using pymatgen
data_SrH4O3
_symmetry_space_group_name_H-M   'P 1'
_cell_length_a   3.58850245
_cell_length_b   6.61198471
_cell_length_c   25.81529300
_cell_angle_alpha   90.00000000
_cell_angle_beta   90.00000000
_cell_angle_gamma   90.00000000
_symmetry_Int_Tables_number   1
_chemical_formula_structural   SrH4O3
_chemical_formula_sum   'Sr2 H8 O6'
_cell_volume   612.52264084
_cell_formula_units_Z   2
loop_
 _symmetry_equiv_pos_site_id
 _symmetry_equiv_pos_as_xyz
  1  'x, y, z'
loop_
 _atom_site_type_symbol
 _atom_site_label
 _atom_site_symmetry_multiplicity
 _atom_site_fract_x
 _atom_site_fract_y
 _atom_site_fract_z
 _atom_site_occupancy
  Sr  Sr1  1  0.500000  0.730700  0.471688  1
  Sr  Sr2  1  0.500000  0.230700  0.528312  1
  H  H3  1  -0.000000  0.580775  0.553237  1
  H  H4  1  -0.000000  0.080775  0.446763  1
  H  H5  1  -0.000000  0.663237  0.368738  1
  H  H6  1  -0.000000  0.163237  0.631262  1
  H  H7  1  0.717085  0.913798  0.587719  1
  H  H8  1  0.282915  0.413798  0.412281  1
  H  H9  1  0.717085  0.413798  0.412281  1
  H  H10  1  0.282915  0.913798  0.587719  1
  O  O11  1  0.500000  0.832637  0.573898  1
  O  O12  1  -0.000000  0.013966  0.480612  1
  O  O13  1  -0.000000  0.619888  0.404789  1
  O  O14  1  -0.000000  0.119888  0.595211  1
  O  O15  1  0.500000  0.332637  0.426102  1
  O  O16  1  -0.000000  0.513966  0.519389  1
