# generated using pymatgen
data_InSiTe3
_symmetry_space_group_name_H-M   'P 1'
_cell_length_a   7.14036719
_cell_length_b   7.14036642
_cell_length_c   23.85679818
_cell_angle_alpha   90.00000000
_cell_angle_beta   90.00000000
_cell_angle_gamma   119.99999428
_symmetry_Int_Tables_number   1
_chemical_formula_structural   InSiTe3
_chemical_formula_sum   'In2 Si2 Te6'
_cell_volume   1053.37706360
_cell_formula_units_Z   2
loop_
 _symmetry_equiv_pos_site_id
 _symmetry_equiv_pos_as_xyz
  1  'x, y, z'
loop_
 _atom_site_type_symbol
 _atom_site_label
 _atom_site_symmetry_multiplicity
 _atom_site_fract_x
 _atom_site_fract_y
 _atom_site_fract_z
 _atom_site_occupancy
  In  In1  1  0.666667  0.333333  0.500101  1
  In  In2  1  0.333333  0.666667  0.499899  1
  Si  Si3  1  -0.000000  -0.000000  0.549052  1
  Si  Si4  1  -0.000000  0.000000  0.450948  1
  Te  Te5  1  0.660396  0.660573  0.580575  1
  Te  Te6  1  0.000176  0.339604  0.580575  1
  Te  Te7  1  0.339604  0.339427  0.419425  1
  Te  Te8  1  0.660573  0.000176  0.419425  1
  Te  Te9  1  0.339427  0.999824  0.580575  1
  Te  Te10  1  0.999824  0.660396  0.419425  1
