# generated using pymatgen
data_Li2CrP4O13
_symmetry_space_group_name_H-M   'P 1'
_cell_length_a   4.95201234
_cell_length_b   7.84099649
_cell_length_c   31.82178000
_cell_angle_alpha   90.75369431
_cell_angle_beta   90.33767828
_cell_angle_gamma   82.53700949
_symmetry_Int_Tables_number   1
_chemical_formula_structural   Li2CrP4O13
_chemical_formula_sum   'Li4 Cr2 P8 O26'
_cell_volume   1225.01500275
_cell_formula_units_Z   2
loop_
 _symmetry_equiv_pos_site_id
 _symmetry_equiv_pos_as_xyz
  1  'x, y, z'
loop_
 _atom_site_type_symbol
 _atom_site_label
 _atom_site_symmetry_multiplicity
 _atom_site_fract_x
 _atom_site_fract_y
 _atom_site_fract_z
 _atom_site_occupancy
  Li  Li1  1  0.585209  0.559514  0.314144  1
  Li  Li2  1  0.101230  0.327877  0.511275  1
  Li  Li3  1  0.414791  0.440486  0.685856  1
  Li  Li4  1  0.898770  0.672123  0.488725  1
  Cr  Cr5  1  0.461140  0.132633  0.602092  1
  Cr  Cr6  1  0.538860  0.867367  0.397908  1
  P  P7  1  0.988286  0.942451  0.558460  1
  P  P8  1  0.322062  0.761051  0.622175  1
  P  P9  1  0.655723  0.488994  0.570581  1
  P  P10  1  0.011714  0.057549  0.441540  1
  P  P11  1  0.925033  0.321515  0.646254  1
  P  P12  1  0.677938  0.238949  0.377825  1
  P  P13  1  0.344277  0.511006  0.429419  1
  P  P14  1  0.074967  0.678485  0.353746  1
  O  O15  1  0.776095  0.166389  0.633120  1
  O  O16  1  0.036322  0.819275  0.599743  1
  O  O17  1  0.295794  0.640018  0.656494  1
  O  O18  1  0.878367  0.452905  0.607071  1
  O  O19  1  0.315392  0.986435  0.440429  1
  O  O20  1  0.764791  0.733498  0.352478  1
  O  O21  1  0.499033  0.672493  0.583171  1
  O  O22  1  0.073670  0.837678  0.520528  1
  O  O23  1  0.235209  0.266502  0.647522  1
  O  O24  1  0.189607  0.594302  0.314220  1
  O  O25  1  0.810393  0.405698  0.685780  1
  O  O26  1  0.500967  0.327507  0.416829  1
  O  O27  1  0.556573  0.075291  0.366599  1
  O  O28  1  0.848486  0.902607  0.431786  1
  O  O29  1  0.459025  0.354706  0.571959  1
  O  O30  1  0.202162  0.493693  0.469887  1
  O  O31  1  0.926330  0.162322  0.479472  1
  O  O32  1  0.684608  0.013565  0.559571  1
  O  O33  1  0.797838  0.506307  0.530113  1
  O  O34  1  0.540975  0.645294  0.428041  1
  O  O35  1  0.121633  0.547095  0.392929  1
  O  O36  1  0.151514  0.097393  0.568214  1
  O  O37  1  0.443427  0.924709  0.633401  1
  O  O38  1  0.223905  0.833611  0.366880  1
  O  O39  1  0.963678  0.180725  0.400257  1
  O  O40  1  0.704206  0.359982  0.343506  1
