# generated using pymatgen
data_LiWF6
_symmetry_space_group_name_H-M   'P 1'
_cell_length_a   5.00487020
_cell_length_b   10.13398346
_cell_length_c   27.09254600
_cell_angle_alpha   89.88761317
_cell_angle_beta   90.00000000
_cell_angle_gamma   90.00000000
_symmetry_Int_Tables_number   1
_chemical_formula_structural   LiWF6
_chemical_formula_sum   'Li4 W4 F24'
_cell_volume   1374.11156094
_cell_formula_units_Z   4
loop_
 _symmetry_equiv_pos_site_id
 _symmetry_equiv_pos_as_xyz
  1  'x, y, z'
loop_
 _atom_site_type_symbol
 _atom_site_label
 _atom_site_symmetry_multiplicity
 _atom_site_fract_x
 _atom_site_fract_y
 _atom_site_fract_z
 _atom_site_occupancy
  Li  Li1  1  0.133521  0.089815  0.466679  1
  Li  Li2  1  0.633555  0.410212  0.533315  1
  Li  Li3  1  0.866479  0.589815  0.466679  1
  Li  Li4  1  0.366445  0.910212  0.533315  1
  W  W5  1  0.866939  0.123097  0.587509  1
  W  W6  1  0.366936  0.376909  0.412493  1
  W  W7  1  0.133061  0.623097  0.587509  1
  W  W8  1  0.633064  0.876909  0.412493  1
  F  F9  1  0.557493  0.005608  0.579855  1
  F  F10  1  0.044760  0.020907  0.531405  1
  F  F11  1  0.006532  0.000669  0.633137  1
  F  F12  1  0.691827  0.228326  0.636037  1
  F  F13  1  0.701336  0.229341  0.533965  1
  F  F14  1  0.153048  0.246372  0.581704  1
  F  F15  1  0.653047  0.253633  0.418305  1
  F  F16  1  0.191843  0.271615  0.363986  1
  F  F17  1  0.201331  0.270697  0.466045  1
  F  F18  1  0.506501  0.499286  0.366852  1
  F  F19  1  0.544752  0.479108  0.468585  1
  F  F20  1  0.057496  0.494401  0.420128  1
  F  F21  1  0.442507  0.505608  0.579855  1
  F  F22  1  0.993468  0.500669  0.633137  1
  F  F23  1  0.955240  0.520907  0.531405  1
  F  F24  1  0.308173  0.728326  0.636037  1
  F  F25  1  0.298664  0.729341  0.533965  1
  F  F26  1  0.846952  0.746372  0.581704  1
  F  F27  1  0.346953  0.753633  0.418305  1
  F  F28  1  0.798669  0.770697  0.466045  1
  F  F29  1  0.808157  0.771615  0.363986  1
  F  F30  1  0.493499  0.999286  0.366852  1
  F  F31  1  0.455248  0.979108  0.468585  1
  F  F32  1  0.942504  0.994401  0.420128  1
