# generated using pymatgen
data_ZnSeO3
_symmetry_space_group_name_H-M   'P 1'
_cell_length_a   6.55353634
_cell_length_b   11.22527904
_cell_length_c   23.36521300
_cell_angle_alpha   90.00000000
_cell_angle_beta   90.00000000
_cell_angle_gamma   90.00000000
_symmetry_Int_Tables_number   1
_chemical_formula_structural   ZnSeO3
_chemical_formula_sum   'Zn4 Se4 O12'
_cell_volume   1718.86829911
_cell_formula_units_Z   4
loop_
 _symmetry_equiv_pos_site_id
 _symmetry_equiv_pos_as_xyz
  1  'x, y, z'
loop_
 _atom_site_type_symbol
 _atom_site_label
 _atom_site_symmetry_multiplicity
 _atom_site_fract_x
 _atom_site_fract_y
 _atom_site_fract_z
 _atom_site_occupancy
  Zn  Zn1  1  0.359311  0.431169  0.533142  1
  Zn  Zn2  1  0.859311  0.568831  0.466858  1
  Zn  Zn3  1  0.359311  0.931169  0.466858  1
  Zn  Zn4  1  0.859311  0.068831  0.533142  1
  Se  Se5  1  0.949419  0.348416  0.548239  1
  Se  Se6  1  0.449419  0.651584  0.451761  1
  Se  Se7  1  0.949419  0.848416  0.451761  1
  Se  Se8  1  0.449419  0.151584  0.548239  1
  O  O9  1  0.658342  0.117981  0.589724  1
  O  O10  1  0.158342  0.882019  0.410276  1
  O  O11  1  0.658342  0.617981  0.410276  1
  O  O12  1  0.158342  0.382019  0.589724  1
  O  O13  1  0.531306  0.059448  0.490422  1
  O  O14  1  0.031306  0.940552  0.509578  1
  O  O15  1  0.531306  0.559448  0.509578  1
  O  O16  1  0.031306  0.440552  0.490422  1
  O  O17  1  0.018446  0.213740  0.519091  1
  O  O18  1  0.518446  0.786260  0.480909  1
  O  O19  1  0.018446  0.713740  0.480909  1
  O  O20  1  0.518446  0.286260  0.519091  1
