# generated using pymatgen
data_TlV3(SeO6)2
_symmetry_space_group_name_H-M   'P 1'
_cell_length_a   7.14312430
_cell_length_b   7.14312403
_cell_length_c   24.31857493
_cell_angle_alpha   90.00000000
_cell_angle_beta   90.00000000
_cell_angle_gamma   120.00000126
_symmetry_Int_Tables_number   1
_chemical_formula_structural   TlV3(SeO6)2
_chemical_formula_sum   'Tl1 V3 Se2 O12'
_cell_volume   1074.59581903
_cell_formula_units_Z   1
loop_
 _symmetry_equiv_pos_site_id
 _symmetry_equiv_pos_as_xyz
  1  'x, y, z'
loop_
 _atom_site_type_symbol
 _atom_site_label
 _atom_site_symmetry_multiplicity
 _atom_site_fract_x
 _atom_site_fract_y
 _atom_site_fract_z
 _atom_site_occupancy
  Tl  Tl1  1  -0.000000  -0.000000  0.545875  1
  V  V2  1  0.536202  0.535937  0.496282  1
  V  V3  1  0.999735  0.463798  0.496282  1
  V  V4  1  0.464063  0.000265  0.496282  1
  Se  Se5  1  0.666667  0.333333  0.603800  1
  Se  Se6  1  0.333333  0.666667  0.390249  1
  O  O7  1  0.791279  0.206377  0.485507  1
  O  O8  1  0.582161  0.791224  0.510330  1
  O  O9  1  0.209064  0.417839  0.510330  1
  O  O10  1  0.457586  0.536323  0.419481  1
  O  O11  1  0.534994  0.457424  0.575093  1
  O  O12  1  0.463677  0.921263  0.419481  1
  O  O13  1  0.208776  0.790936  0.510330  1
  O  O14  1  0.415098  0.208721  0.485507  1
  O  O15  1  0.922430  0.465006  0.575093  1
  O  O16  1  0.542576  0.077570  0.575093  1
  O  O17  1  0.078737  0.542414  0.419481  1
  O  O18  1  0.793623  0.584902  0.485507  1
