# generated using pymatgen
data_Co3NiO8
_symmetry_space_group_name_H-M   'P 1'
_cell_length_a   5.61010811
_cell_length_b   5.61010868
_cell_length_c   21.94377100
_cell_angle_alpha   90.00000000
_cell_angle_beta   90.00000000
_cell_angle_gamma   59.99999750
_symmetry_Int_Tables_number   1
_chemical_formula_structural   Co3NiO8
_chemical_formula_sum   'Co3 Ni1 O8'
_cell_volume   598.11457835
_cell_formula_units_Z   1
loop_
 _symmetry_equiv_pos_site_id
 _symmetry_equiv_pos_as_xyz
  1  'x, y, z'
loop_
 _atom_site_type_symbol
 _atom_site_label
 _atom_site_symmetry_multiplicity
 _atom_site_fract_x
 _atom_site_fract_y
 _atom_site_fract_z
 _atom_site_occupancy
  Co  Co1  1  0.000000  0.500000  0.500000  1
  Co  Co2  1  0.500000  0.500000  0.500000  1
  Co  Co3  1  0.500000  -0.000000  0.500000  1
  Ni  Ni4  1  0.000000  -0.000000  0.500000  1
  O  O5  1  0.165957  0.668085  0.456307  1
  O  O6  1  0.165957  0.165957  0.456307  1
  O  O7  1  0.668085  0.165957  0.456307  1
  O  O8  1  0.666667  0.666667  0.455384  1
  O  O9  1  0.333333  0.333333  0.544616  1
  O  O10  1  0.331915  0.834043  0.543693  1
  O  O11  1  0.834043  0.834043  0.543693  1
  O  O12  1  0.834043  0.331915  0.543693  1
