# generated using pymatgen
data_TaFeTe3
_symmetry_space_group_name_H-M   'P 1'
_cell_length_a   3.47081111
_cell_length_b   10.37374600
_cell_length_c   24.49963300
_cell_angle_alpha   90.00000000
_cell_angle_beta   90.00000000
_cell_angle_gamma   90.00000000
_symmetry_Int_Tables_number   1
_chemical_formula_structural   TaFeTe3
_chemical_formula_sum   'Ta2 Fe2 Te6'
_cell_volume   882.11695134
_cell_formula_units_Z   2
loop_
 _symmetry_equiv_pos_site_id
 _symmetry_equiv_pos_as_xyz
  1  'x, y, z'
loop_
 _atom_site_type_symbol
 _atom_site_label
 _atom_site_symmetry_multiplicity
 _atom_site_fract_x
 _atom_site_fract_y
 _atom_site_fract_z
 _atom_site_occupancy
  Ta  Ta1  1  0.250000  0.248814  0.490183  1
  Ta  Ta2  1  0.750000  0.639680  0.509817  1
  Fe  Fe3  1  0.750000  0.039541  0.492330  1
  Fe  Fe4  1  0.250000  0.848953  0.507670  1
  Te  Te5  1  0.750000  0.384418  0.563581  1
  Te  Te6  1  0.250000  0.504076  0.436419  1
  Te  Te7  1  0.750000  0.834507  0.429376  1
  Te  Te8  1  0.250000  0.053987  0.570624  1
  Te  Te9  1  0.250000  0.703860  0.593776  1
  Te  Te10  1  0.750000  0.184634  0.406224  1
