# generated using pymatgen
data_MnAs2F12
_symmetry_space_group_name_H-M   'P 1'
_cell_length_a   7.27357066
_cell_length_b   7.27357066
_cell_length_c   23.58706600
_cell_angle_alpha   90.00000000
_cell_angle_beta   90.00000000
_cell_angle_gamma   90.00000000
_symmetry_Int_Tables_number   1
_chemical_formula_structural   MnAs2F12
_chemical_formula_sum   'Mn1 As2 F12'
_cell_volume   1247.86972037
_cell_formula_units_Z   1
loop_
 _symmetry_equiv_pos_site_id
 _symmetry_equiv_pos_as_xyz
  1  'x, y, z'
loop_
 _atom_site_type_symbol
 _atom_site_label
 _atom_site_symmetry_multiplicity
 _atom_site_fract_x
 _atom_site_fract_y
 _atom_site_fract_z
 _atom_site_occupancy
  Mn  Mn1  1  -0.000000  -0.000000  0.500000  1
  As  As2  1  0.500000  -0.000000  0.474359  1
  As  As3  1  -0.000000  0.500000  0.525641  1
  F  F4  1  0.449860  0.160650  0.527173  1
  F  F5  1  0.550141  0.839351  0.527173  1
  F  F6  1  0.160650  0.550141  0.472827  1
  F  F7  1  0.839351  0.449860  0.472827  1
  F  F8  1  0.837772  0.448878  0.577501  1
  F  F9  1  0.162228  0.551123  0.577501  1
  F  F10  1  0.551123  0.837772  0.422499  1
  F  F11  1  0.448878  0.162228  0.422499  1
  F  F12  1  0.924341  0.745072  0.526129  1
  F  F13  1  0.075659  0.254928  0.526129  1
  F  F14  1  0.254928  0.924341  0.473871  1
  F  F15  1  0.745072  0.075659  0.473871  1
