# generated using pymatgen
data_MnSbSe2Br
_symmetry_space_group_name_H-M   'P 1'
_cell_length_a   3.90919160
_cell_length_b   9.74385662
_cell_length_c   37.53970800
_cell_angle_alpha   90.00000000
_cell_angle_beta   90.00000000
_cell_angle_gamma   90.07246668
_symmetry_Int_Tables_number   1
_chemical_formula_structural   MnSbSe2Br
_chemical_formula_sum   'Mn4 Sb4 Se8 Br4'
_cell_volume   1429.90894828
_cell_formula_units_Z   4
loop_
 _symmetry_equiv_pos_site_id
 _symmetry_equiv_pos_as_xyz
  1  'x, y, z'
loop_
 _atom_site_type_symbol
 _atom_site_label
 _atom_site_symmetry_multiplicity
 _atom_site_fract_x
 _atom_site_fract_y
 _atom_site_fract_z
 _atom_site_occupancy
  Mn  Mn1  1  0.999071  0.998360  0.499985  1
  Mn  Mn2  1  0.995350  0.940814  0.685464  1
  Mn  Mn3  1  0.004331  0.055542  0.314420  1
  Mn  Mn4  1  0.999997  0.497960  0.500035  1
  Sb  Sb5  1  0.500096  0.199410  0.576046  1
  Sb  Sb6  1  0.998541  0.161266  0.395597  1
  Sb  Sb7  1  0.497713  0.797167  0.424097  1
  Sb  Sb8  1  0.999978  0.835221  0.604249  1
  Se  Se9  1  0.496944  0.237399  0.346645  1
  Se  Se10  1  0.999814  0.244858  0.522082  1
  Se  Se11  1  0.997740  0.751408  0.478067  1
  Se  Se12  1  0.499672  0.947630  0.548412  1
  Se  Se13  1  0.498481  0.049065  0.451592  1
  Se  Se14  1  0.500561  0.759405  0.653241  1
  Se  Se15  1  0.998723  0.897663  0.370828  1
  Se  Se16  1  0.999486  0.099072  0.629193  1
  Br  Br17  1  0.002672  0.440198  0.435445  1
  Br  Br18  1  0.495778  0.010175  0.725246  1
  Br  Br19  1  0.503868  0.985813  0.274772  1
  Br  Br20  1  0.001132  0.556386  0.564586  1
