# generated using pymatgen
data_Na2H10SO5
_symmetry_space_group_name_H-M   'P 1'
_cell_length_a   6.46775310
_cell_length_b   8.54256089
_cell_length_c   24.79893300
_cell_angle_alpha   90.00000000
_cell_angle_beta   90.00000000
_cell_angle_gamma   90.00000000
_symmetry_Int_Tables_number   1
_chemical_formula_structural   Na2H10SO5
_chemical_formula_sum   'Na4 H20 S2 O10'
_cell_volume   1370.17017902
_cell_formula_units_Z   2
loop_
 _symmetry_equiv_pos_site_id
 _symmetry_equiv_pos_as_xyz
  1  'x, y, z'
loop_
 _atom_site_type_symbol
 _atom_site_label
 _atom_site_symmetry_multiplicity
 _atom_site_fract_x
 _atom_site_fract_y
 _atom_site_fract_z
 _atom_site_occupancy
  Na  Na1  1  0.500000  -0.000000  0.500000  1
  Na  Na2  1  0.000000  0.250000  0.529441  1
  Na  Na3  1  0.000000  0.750000  0.470559  1
  Na  Na4  1  0.500000  0.500000  0.500000  1
  H  H5  1  0.713282  0.585339  0.397001  1
  H  H6  1  0.838175  0.956609  0.571372  1
  H  H7  1  0.838175  0.043391  0.428628  1
  H  H8  1  0.161825  0.456609  0.428628  1
  H  H9  1  0.161825  0.043391  0.428628  1
  H  H10  1  0.161825  0.956609  0.571372  1
  H  H11  1  0.838175  0.543391  0.571372  1
  H  H12  1  0.838175  0.456609  0.428628  1
  H  H13  1  0.713282  0.085339  0.602999  1
  H  H14  1  0.713282  0.914661  0.397001  1
  H  H15  1  0.286718  0.585339  0.397001  1
  H  H16  1  0.286718  0.414661  0.602999  1
  H  H17  1  0.286718  0.914661  0.397001  1
  H  H18  1  0.286718  0.085339  0.602999  1
  H  H19  1  0.625968  0.250000  0.433326  1
  H  H20  1  0.713282  0.414661  0.602999  1
  H  H21  1  0.374032  0.750000  0.566674  1
  H  H22  1  0.374032  0.250000  0.433326  1
  H  H23  1  0.625968  0.750000  0.566674  1
  H  H24  1  0.161825  0.543391  0.571372  1
  S  S25  1  0.000000  0.750000  0.580485  1
  S  S26  1  0.000000  0.250000  0.419515  1
  O  O27  1  0.762071  0.061033  0.566798  1
  O  O28  1  0.762071  0.938967  0.433202  1
  O  O29  1  0.237929  0.561033  0.433202  1
  O  O30  1  0.237929  0.438967  0.566798  1
  O  O31  1  0.237929  0.938967  0.433202  1
  O  O32  1  0.237929  0.061033  0.566798  1
  O  O33  1  0.762071  0.438967  0.566798  1
  O  O34  1  0.762071  0.561033  0.433202  1
  O  O35  1  0.500000  0.250000  0.456233  1
  O  O36  1  0.500000  0.750000  0.543767  1
