# generated using pymatgen
data_Zn(InS2)2
_symmetry_space_group_name_H-M   'P 1'
_cell_length_a   3.91031580
_cell_length_b   3.91031610
_cell_length_c   29.53727500
_cell_angle_alpha   90.00000000
_cell_angle_beta   90.00000000
_cell_angle_gamma   120.00000590
_symmetry_Int_Tables_number   1
_chemical_formula_structural   Zn(InS2)2
_chemical_formula_sum   'Zn1 In2 S4'
_cell_volume   391.13324526
_cell_formula_units_Z   1
loop_
 _symmetry_equiv_pos_site_id
 _symmetry_equiv_pos_as_xyz
  1  'x, y, z'
loop_
 _atom_site_type_symbol
 _atom_site_label
 _atom_site_symmetry_multiplicity
 _atom_site_fract_x
 _atom_site_fract_y
 _atom_site_fract_z
 _atom_site_occupancy
  Zn  Zn1  1  0.333333  0.666667  0.359254  1
  In  In2  1  -0.000000  0.000000  0.493681  1
  In  In3  1  0.666667  0.333333  0.630300  1
  S  S4  1  0.666667  0.333333  0.347353  1
  S  S5  1  0.666667  0.333333  0.548249  1
  S  S6  1  0.333333  0.666667  0.452063  1
  S  S7  1  0.333333  0.666667  0.669102  1
