# generated using pymatgen
data_Ge5(Te4As)2
_symmetry_space_group_name_H-M   'P 1'
_cell_length_a   4.20763943
_cell_length_b   4.20764036
_cell_length_c   64.27486200
_cell_angle_alpha   90.00000000
_cell_angle_beta   90.00000000
_cell_angle_gamma   120.00000050
_symmetry_Int_Tables_number   1
_chemical_formula_structural   Ge5(Te4As)2
_chemical_formula_sum   'Ge5 Te8 As2'
_cell_volume   985.48248616
_cell_formula_units_Z   1
loop_
 _symmetry_equiv_pos_site_id
 _symmetry_equiv_pos_as_xyz
  1  'x, y, z'
loop_
 _atom_site_type_symbol
 _atom_site_label
 _atom_site_symmetry_multiplicity
 _atom_site_fract_x
 _atom_site_fract_y
 _atom_site_fract_z
 _atom_site_occupancy
  Ge  Ge1  1  -0.000000  -0.000000  0.500000  1
  Ge  Ge2  1  0.333333  0.666667  0.609589  1
  Ge  Ge3  1  0.666667  0.333333  0.554763  1
  Ge  Ge4  1  0.666667  0.333333  0.390411  1
  Ge  Ge5  1  0.333333  0.666667  0.445237  1
  Te  Te6  1  0.666667  0.333333  0.636199  1
  Te  Te7  1  0.666667  0.333333  0.472843  1
  Te  Te8  1  0.333333  0.666667  0.363801  1
  Te  Te9  1  0.333333  0.666667  0.527157  1
  Te  Te10  1  -0.000000  -0.000000  0.418409  1
  Te  Te11  1  -0.000000  -0.000000  0.581591  1
  Te  Te12  1  0.666667  0.333333  0.311111  1
  Te  Te13  1  0.333333  0.666667  0.688889  1
  As  As14  1  -0.000000  -0.000000  0.334720  1
  As  As15  1  -0.000000  -0.000000  0.665280  1
