# generated using pymatgen
data_Dy2(BiO2)7
_symmetry_space_group_name_H-M   'P 1'
_cell_length_a   3.92999367
_cell_length_b   10.57174315
_cell_length_c   27.92249300
_cell_angle_alpha   90.00000000
_cell_angle_beta   90.00000000
_cell_angle_gamma   100.71200811
_symmetry_Int_Tables_number   1
_chemical_formula_structural   Dy2(BiO2)7
_chemical_formula_sum   'Dy2 Bi7 O14'
_cell_volume   1139.87663554
_cell_formula_units_Z   1
loop_
 _symmetry_equiv_pos_site_id
 _symmetry_equiv_pos_as_xyz
  1  'x, y, z'
loop_
 _atom_site_type_symbol
 _atom_site_label
 _atom_site_symmetry_multiplicity
 _atom_site_fract_x
 _atom_site_fract_y
 _atom_site_fract_z
 _atom_site_occupancy
  Dy  Dy1  1  0.005274  0.010547  0.500546  1
  Dy  Dy2  1  0.664712  0.329423  0.494106  1
  Bi  Bi3  1  0.445213  0.890427  0.396536  1
  Bi  Bi4  1  0.225160  0.450321  0.613725  1
  Bi  Bi5  1  0.114621  0.229243  0.391187  1
  Bi  Bi6  1  0.883057  0.766114  0.606153  1
  Bi  Bi7  1  0.329840  0.659681  0.503242  1
  Bi  Bi8  1  0.772623  0.545246  0.388433  1
  Bi  Bi9  1  0.553010  0.106019  0.607399  1
  O  O10  1  0.564792  0.129584  0.532488  1
  O  O11  1  0.117128  0.234255  0.614061  1
  O  O12  1  0.009651  0.019303  0.409420  1
  O  O13  1  0.220754  0.441510  0.535119  1
  O  O14  1  0.769274  0.538548  0.630387  1
  O  O15  1  0.655058  0.310115  0.412206  1
  O  O16  1  0.113953  0.227905  0.469505  1
  O  O17  1  0.882191  0.764382  0.528065  1
  O  O18  1  0.342562  0.685123  0.584291  1
  O  O19  1  0.766699  0.533397  0.464799  1
  O  O20  1  0.990082  0.980163  0.583346  1
  O  O21  1  0.242188  0.484375  0.365033  1
  O  O22  1  0.877733  0.755465  0.398075  1
  O  O23  1  0.454440  0.908880  0.471878  1
