# generated using pymatgen
data_NaTaCl6
_symmetry_space_group_name_H-M   'P 1'
_cell_length_a   6.35737430
_cell_length_b   6.77298832
_cell_length_c   29.41943100
_cell_angle_alpha   90.00000000
_cell_angle_beta   90.00000000
_cell_angle_gamma   90.00000000
_symmetry_Int_Tables_number   1
_chemical_formula_structural   NaTaCl6
_chemical_formula_sum   'Na2 Ta2 Cl12'
_cell_volume   1266.75427146
_cell_formula_units_Z   2
loop_
 _symmetry_equiv_pos_site_id
 _symmetry_equiv_pos_as_xyz
  1  'x, y, z'
loop_
 _atom_site_type_symbol
 _atom_site_label
 _atom_site_symmetry_multiplicity
 _atom_site_fract_x
 _atom_site_fract_y
 _atom_site_fract_z
 _atom_site_occupancy
  Na  Na1  1  0.792913  0.190514  0.497907  1
  Na  Na2  1  0.207087  0.690514  0.502093  1
  Ta  Ta3  1  0.262163  0.283558  0.411290  1
  Ta  Ta4  1  0.737837  0.783559  0.588710  1
  Cl  Cl5  1  0.617167  0.817566  0.508563  1
  Cl  Cl6  1  0.382833  0.317566  0.491437  1
  Cl  Cl7  1  0.440045  0.597117  0.603059  1
  Cl  Cl8  1  0.559955  0.097117  0.396941  1
  Cl  Cl9  1  0.919623  0.489596  0.561724  1
  Cl  Cl10  1  0.080377  0.989596  0.438276  1
  Cl  Cl11  1  0.883752  0.743772  0.659287  1
  Cl  Cl12  1  0.116248  0.243772  0.340713  1
  Cl  Cl13  1  0.044043  0.968161  0.562327  1
  Cl  Cl14  1  0.955957  0.468161  0.437673  1
  Cl  Cl15  1  0.576382  0.081295  0.605158  1
  Cl  Cl16  1  0.423618  0.581295  0.394842  1
