# generated using pymatgen
data_TiBrN
_symmetry_space_group_name_H-M   'P 1'
_cell_length_a   3.37146670
_cell_length_b   3.94778684
_cell_length_c   25.49703600
_cell_angle_alpha   90.00000000
_cell_angle_beta   90.00000000
_cell_angle_gamma   90.00000000
_symmetry_Int_Tables_number   1
_chemical_formula_structural   TiBrN
_chemical_formula_sum   'Ti2 Br2 N2'
_cell_volume   339.36126234
_cell_formula_units_Z   2
loop_
 _symmetry_equiv_pos_site_id
 _symmetry_equiv_pos_as_xyz
  1  'x, y, z'
loop_
 _atom_site_type_symbol
 _atom_site_label
 _atom_site_symmetry_multiplicity
 _atom_site_fract_x
 _atom_site_fract_y
 _atom_site_fract_z
 _atom_site_occupancy
  Ti  Ti1  1  -0.000000  0.000000  0.470409  1
  Ti  Ti2  1  0.500000  0.500000  0.529591  1
  Br  Br3  1  0.500000  0.000000  0.392387  1
  Br  Br4  1  -0.000000  0.500000  0.607613  1
  N  N5  1  0.000000  0.500000  0.486258  1
  N  N6  1  0.500000  0.000000  0.513742  1
