# generated using pymatgen
data_Mn3CoO8
_symmetry_space_group_name_H-M   'P 1'
_cell_length_a   5.83807698
_cell_length_b   5.83807708
_cell_length_c   21.92855800
_cell_angle_alpha   90.00000000
_cell_angle_beta   90.00000000
_cell_angle_gamma   60.00000633
_symmetry_Int_Tables_number   1
_chemical_formula_structural   Mn3CoO8
_chemical_formula_sum   'Mn3 Co1 O8'
_cell_volume   647.26239352
_cell_formula_units_Z   1
loop_
 _symmetry_equiv_pos_site_id
 _symmetry_equiv_pos_as_xyz
  1  'x, y, z'
loop_
 _atom_site_type_symbol
 _atom_site_label
 _atom_site_symmetry_multiplicity
 _atom_site_fract_x
 _atom_site_fract_y
 _atom_site_fract_z
 _atom_site_occupancy
  Mn  Mn1  1  0.666667  0.166667  0.500000  1
  Mn  Mn2  1  0.166667  0.166667  0.500000  1
  Mn  Mn3  1  0.166667  0.666667  0.500000  1
  Co  Co4  1  0.666667  0.666667  0.500000  1
  O  O5  1  0.329404  0.835298  0.456253  1
  O  O6  1  0.333333  0.333333  0.456042  1
  O  O7  1  0.835298  0.329404  0.456253  1
  O  O8  1  0.835298  0.835298  0.456253  1
  O  O9  1  0.498035  0.498035  0.543747  1
  O  O10  1  0.498035  0.003930  0.543747  1
  O  O11  1  -0.000000  0.000000  0.543958  1
  O  O12  1  0.003930  0.498035  0.543747  1
