# generated using pymatgen
data_TaSe3
_symmetry_space_group_name_H-M   'P 1'
_cell_length_a   3.51825619
_cell_length_b   12.30901158
_cell_length_c   27.06031143
_cell_angle_alpha   89.93542986
_cell_angle_beta   90.00000000
_cell_angle_gamma   90.00000000
_symmetry_Int_Tables_number   1
_chemical_formula_structural   TaSe3
_chemical_formula_sum   'Ta4 Se12'
_cell_volume   1171.88003517
_cell_formula_units_Z   4
loop_
 _symmetry_equiv_pos_site_id
 _symmetry_equiv_pos_as_xyz
  1  'x, y, z'
loop_
 _atom_site_type_symbol
 _atom_site_label
 _atom_site_symmetry_multiplicity
 _atom_site_fract_x
 _atom_site_fract_y
 _atom_site_fract_z
 _atom_site_occupancy
  Ta  Ta1  1  0.250000  0.993677  0.432562  1
  Ta  Ta2  1  0.750000  0.853917  0.567438  1
  Ta  Ta3  1  0.250000  0.585862  0.480596  1
  Ta  Ta4  1  0.750000  0.261731  0.519404  1
  Se  Se5  1  0.250000  0.814129  0.495150  1
  Se  Se6  1  0.750000  0.033464  0.504850  1
  Se  Se7  1  0.250000  0.983302  0.612948  1
  Se  Se8  1  0.750000  0.864291  0.387052  1
  Se  Se9  1  0.750000  0.435519  0.451758  1
  Se  Se10  1  0.250000  0.412074  0.548242  1
  Se  Se11  1  0.750000  0.631259  0.552706  1
  Se  Se12  1  0.250000  0.216335  0.447294  1
  Se  Se13  1  0.750000  0.074857  0.370379  1
  Se  Se14  1  0.250000  0.772736  0.629621  1
  Se  Se15  1  0.750000  0.656074  0.414357  1
  Se  Se16  1  0.250000  0.191520  0.585643  1
