# generated using pymatgen
data_SrH2(SeO3)2
_symmetry_space_group_name_H-M   'P 1'
_cell_length_a   5.90455065
_cell_length_b   7.35160239
_cell_length_c   28.03095455
_cell_angle_alpha   90.16034319
_cell_angle_beta   89.12421801
_cell_angle_gamma   107.37473710
_symmetry_Int_Tables_number   1
_chemical_formula_structural   SrH2(SeO3)2
_chemical_formula_sum   'Sr2 H4 Se4 O12'
_cell_volume   1161.10902347
_cell_formula_units_Z   2
loop_
 _symmetry_equiv_pos_site_id
 _symmetry_equiv_pos_as_xyz
  1  'x, y, z'
loop_
 _atom_site_type_symbol
 _atom_site_label
 _atom_site_symmetry_multiplicity
 _atom_site_fract_x
 _atom_site_fract_y
 _atom_site_fract_z
 _atom_site_occupancy
  Sr  Sr1  1  0.687190  0.289125  0.514515  1
  Sr  Sr2  1  0.312810  0.710875  0.485485  1
  H  H3  1  0.851925  0.004883  0.446177  1
  H  H4  1  0.962918  0.163717  0.646928  1
  H  H5  1  0.037082  0.836283  0.353072  1
  H  H6  1  0.148075  0.995117  0.553823  1
  Se  Se7  1  0.774767  0.620952  0.406934  1
  Se  Se8  1  0.755539  0.814352  0.571864  1
  Se  Se9  1  0.244461  0.185648  0.428136  1
  Se  Se10  1  0.225233  0.379048  0.593066  1
  O  O11  1  0.931381  0.232941  0.619163  1
  O  O12  1  0.047152  0.863677  0.542890  1
  O  O13  1  0.903809  0.548780  0.453299  1
  O  O14  1  0.622557  0.594850  0.549191  1
  O  O15  1  0.673687  0.800243  0.426827  1
  O  O16  1  0.377710  0.053806  0.459984  1
  O  O17  1  0.622290  0.946194  0.540016  1
  O  O18  1  0.326313  0.199757  0.573173  1
  O  O19  1  0.377443  0.405150  0.450809  1
  O  O20  1  0.096191  0.451220  0.546701  1
  O  O21  1  0.952848  0.136323  0.457110  1
  O  O22  1  0.068619  0.767059  0.380837  1
