# generated using pymatgen
data_As2Se3
_symmetry_space_group_name_H-M   'P 1'
_cell_length_a   4.39735505
_cell_length_b   12.10861205
_cell_length_c   23.07934300
_cell_angle_alpha   90.00000000
_cell_angle_beta   90.00000000
_cell_angle_gamma   89.87917583
_symmetry_Int_Tables_number   1
_chemical_formula_structural   As2Se3
_chemical_formula_sum   'As4 Se6'
_cell_volume   1228.87688020
_cell_formula_units_Z   2
loop_
 _symmetry_equiv_pos_site_id
 _symmetry_equiv_pos_as_xyz
  1  'x, y, z'
loop_
 _atom_site_type_symbol
 _atom_site_label
 _atom_site_symmetry_multiplicity
 _atom_site_fract_x
 _atom_site_fract_y
 _atom_site_fract_z
 _atom_site_occupancy
  As  As1  1  0.110874  0.261500  0.526628  1
  As  As2  1  0.610874  0.761500  0.473372  1
  As  As3  1  0.616758  0.483533  0.468330  1
  As  As4  1  0.116758  0.983533  0.531670  1
  Se  Se5  1  0.466685  0.404972  0.560341  1
  Se  Se6  1  0.966685  0.904972  0.439659  1
  Se  Se7  1  0.971131  0.339545  0.433757  1
  Se  Se8  1  0.471131  0.839545  0.566243  1
  Se  Se9  1  0.442218  0.120305  0.481623  1
  Se  Se10  1  0.942218  0.620305  0.518377  1
