# generated using pymatgen
data_MnSbO4
_symmetry_space_group_name_H-M   'P 1'
_cell_length_a   3.02872766
_cell_length_b   5.64982629
_cell_length_c   22.30273200
_cell_angle_alpha   90.00000000
_cell_angle_beta   90.00000000
_cell_angle_gamma   90.00000000
_symmetry_Int_Tables_number   1
_chemical_formula_structural   MnSbO4
_chemical_formula_sum   'Mn1 Sb1 O4'
_cell_volume   381.63955844
_cell_formula_units_Z   1
loop_
 _symmetry_equiv_pos_site_id
 _symmetry_equiv_pos_as_xyz
  1  'x, y, z'
loop_
 _atom_site_type_symbol
 _atom_site_label
 _atom_site_symmetry_multiplicity
 _atom_site_fract_x
 _atom_site_fract_y
 _atom_site_fract_z
 _atom_site_occupancy
  Mn  Mn1  1  0.000000  0.377075  0.499994  1
  Sb  Sb2  1  0.500000  0.876858  0.500038  1
  O  O3  1  0.500000  0.547376  0.462604  1
  O  O4  1  0.000000  0.005633  0.449864  1
  O  O5  1  0.500000  0.206634  0.537387  1
  O  O6  1  0.000000  0.748393  0.550112  1
