# generated using pymatgen
data_GaGeTe
_symmetry_space_group_name_H-M   'P 1'
_cell_length_a   4.11314323
_cell_length_b   4.11314386
_cell_length_c   28.28913600
_cell_angle_alpha   90.00000000
_cell_angle_beta   90.00000000
_cell_angle_gamma   59.99999712
_symmetry_Int_Tables_number   1
_chemical_formula_structural   GaGeTe
_chemical_formula_sum   'Ga2 Ge2 Te2'
_cell_volume   414.47470899
_cell_formula_units_Z   2
loop_
 _symmetry_equiv_pos_site_id
 _symmetry_equiv_pos_as_xyz
  1  'x, y, z'
loop_
 _atom_site_type_symbol
 _atom_site_label
 _atom_site_symmetry_multiplicity
 _atom_site_fract_x
 _atom_site_fract_y
 _atom_site_fract_z
 _atom_site_occupancy
  Ga  Ga1  1  -0.000000  -0.000000  0.601553  1
  Ga  Ga2  1  0.333333  0.333333  0.398447  1
  Ge  Ge3  1  -0.000000  -0.000000  0.514301  1
  Ge  Ge4  1  0.333333  0.333333  0.485699  1
  Te  Te5  1  0.666667  0.666667  0.353499  1
  Te  Te6  1  0.666667  0.666667  0.646501  1
