# generated using pymatgen
data_RbPaF6
_symmetry_space_group_name_H-M   'P 1'
_cell_length_a   7.05710729
_cell_length_b   8.00873643
_cell_length_c   22.53378600
_cell_angle_alpha   90.00000000
_cell_angle_beta   90.00000000
_cell_angle_gamma   90.00000000
_symmetry_Int_Tables_number   1
_chemical_formula_structural   RbPaF6
_chemical_formula_sum   'Rb2 Pa2 F12'
_cell_volume   1273.57605994
_cell_formula_units_Z   2
loop_
 _symmetry_equiv_pos_site_id
 _symmetry_equiv_pos_as_xyz
  1  'x, y, z'
loop_
 _atom_site_type_symbol
 _atom_site_label
 _atom_site_symmetry_multiplicity
 _atom_site_fract_x
 _atom_site_fract_y
 _atom_site_fract_z
 _atom_site_occupancy
  Rb  Rb1  1  0.492734  0.750000  0.500000  1
  Rb  Rb2  1  0.507266  0.250000  0.500000  1
  Pa  Pa3  1  0.000000  -0.000000  0.500000  1
  Pa  Pa4  1  0.000000  0.500000  0.500000  1
  F  F5  1  0.242973  0.012407  0.443761  1
  F  F6  1  0.242973  0.487593  0.556239  1
  F  F7  1  0.757027  0.512407  0.556239  1
  F  F8  1  0.757027  0.987593  0.443761  1
  F  F9  1  0.017922  0.750000  0.552790  1
  F  F10  1  0.017922  0.750000  0.447210  1
  F  F11  1  0.982078  0.250000  0.447210  1
  F  F12  1  0.982078  0.250000  0.552790  1
  F  F13  1  0.242973  0.012407  0.556239  1
  F  F14  1  0.242973  0.487593  0.443761  1
  F  F15  1  0.757027  0.512407  0.443761  1
  F  F16  1  0.757027  0.987593  0.556239  1
