# generated using pymatgen
data_UP2(PbO5)2
_symmetry_space_group_name_H-M   'P 1'
_cell_length_a   6.69994616
_cell_length_b   11.87917331
_cell_length_c   23.76266900
_cell_angle_alpha   91.41695351
_cell_angle_beta   90.07351024
_cell_angle_gamma   84.78041285
_symmetry_Int_Tables_number   1
_chemical_formula_structural   UP2(PbO5)2
_chemical_formula_sum   'U2 P4 Pb4 O20'
_cell_volume   1882.84737353
_cell_formula_units_Z   2
loop_
 _symmetry_equiv_pos_site_id
 _symmetry_equiv_pos_as_xyz
  1  'x, y, z'
loop_
 _atom_site_type_symbol
 _atom_site_label
 _atom_site_symmetry_multiplicity
 _atom_site_fract_x
 _atom_site_fract_y
 _atom_site_fract_z
 _atom_site_occupancy
  U  U1  1  0.222014  0.741477  0.489792  1
  U  U2  1  0.965398  0.453863  0.510208  1
  P  P3  1  0.749619  0.735014  0.459421  1
  P  P4  1  0.437793  0.460326  0.540579  1
  P  P5  1  0.792345  0.183605  0.531044  1
  P  P6  1  0.395067  0.011735  0.468956  1
  Pb  Pb7  1  0.292210  0.178967  0.574462  1
  Pb  Pb8  1  0.895202  0.016373  0.425538  1
  Pb  Pb9  1  0.426079  0.294234  0.432304  1
  Pb  Pb10  1  0.761333  0.901105  0.567696  1
  O  O11  1  0.167327  0.793648  0.562181  1
  O  O12  1  0.709781  0.197415  0.469761  1
  O  O13  1  0.315445  0.351315  0.523354  1
  O  O14  1  0.565617  0.750702  0.501047  1
  O  O15  1  0.904905  0.060654  0.530124  1
  O  O16  1  0.951737  0.268466  0.540846  1
  O  O17  1  0.941168  0.497557  0.582935  1
  O  O18  1  0.282506  0.134686  0.469876  1
  O  O19  1  0.711593  0.723968  0.398832  1
  O  O20  1  0.281732  0.552538  0.514012  1
  O  O21  1  0.246244  0.697783  0.417065  1
  O  O22  1  0.477631  0.997924  0.530239  1
  O  O23  1  0.905679  0.642801  0.485988  1
  O  O24  1  0.633074  0.197693  0.576663  1
  O  O25  1  0.235675  0.926873  0.459154  1
  O  O26  1  0.871967  0.844025  0.476646  1
  O  O27  1  0.020085  0.401691  0.437819  1
  O  O28  1  0.475819  0.471372  0.601168  1
  O  O29  1  0.554338  0.997647  0.423337  1
  O  O30  1  0.621794  0.444638  0.498953  1
