# generated using pymatgen
data_Al2CdCl8
_symmetry_space_group_name_H-M   'P 1'
_cell_length_a   7.00643439
_cell_length_b   12.75493887
_cell_length_c   27.19977266
_cell_angle_alpha   90.00000000
_cell_angle_beta   90.00000000
_cell_angle_gamma   92.23593657
_symmetry_Int_Tables_number   1
_chemical_formula_structural   Al2CdCl8
_chemical_formula_sum   'Al4 Cd2 Cl16'
_cell_volume   2428.90168486
_cell_formula_units_Z   2
loop_
 _symmetry_equiv_pos_site_id
 _symmetry_equiv_pos_as_xyz
  1  'x, y, z'
loop_
 _atom_site_type_symbol
 _atom_site_label
 _atom_site_symmetry_multiplicity
 _atom_site_fract_x
 _atom_site_fract_y
 _atom_site_fract_z
 _atom_site_occupancy
  Al  Al1  1  0.559991  0.542251  0.607087  1
  Al  Al2  1  0.150915  0.242255  0.483881  1
  Al  Al3  1  0.150915  0.742255  0.516119  1
  Al  Al4  1  0.559991  0.042251  0.392913  1
  Cd  Cd5  1  0.005551  0.501795  0.560579  1
  Cd  Cd6  1  0.005551  0.001795  0.439421  1
  Cl  Cl7  1  0.523378  0.183542  0.355510  1
  Cl  Cl8  1  0.523378  0.683542  0.644490  1
  Cl  Cl9  1  0.652935  0.563695  0.531048  1
  Cl  Cl10  1  0.652935  0.063695  0.468952  1
  Cl  Cl11  1  0.304491  0.436229  0.608960  1
  Cl  Cl12  1  0.304491  0.936229  0.391040  1
  Cl  Cl13  1  0.167042  0.586876  0.481416  1
  Cl  Cl14  1  0.167042  0.086876  0.518584  1
  Cl  Cl15  1  0.789156  0.450301  0.638364  1
  Cl  Cl16  1  0.789156  0.950301  0.361636  1
  Cl  Cl17  1  0.053484  0.202791  0.409803  1
  Cl  Cl18  1  0.053484  0.702791  0.590197  1
  Cl  Cl19  1  0.409281  0.330641  0.485666  1
  Cl  Cl20  1  0.409281  0.830641  0.514334  1
  Cl  Cl21  1  0.915179  0.318625  0.520625  1
  Cl  Cl22  1  0.915179  0.818625  0.479375  1
