# generated using pymatgen
data_Co(CO3)2
_symmetry_space_group_name_H-M   'P 1'
_cell_length_a   6.83427895
_cell_length_b   7.39397181
_cell_length_c   22.68102900
_cell_angle_alpha   90.00000000
_cell_angle_beta   90.00000000
_cell_angle_gamma   90.00000000
_symmetry_Int_Tables_number   1
_chemical_formula_structural   Co(CO3)2
_chemical_formula_sum   'Co2 C4 O12'
_cell_volume   1146.12832447
_cell_formula_units_Z   2
loop_
 _symmetry_equiv_pos_site_id
 _symmetry_equiv_pos_as_xyz
  1  'x, y, z'
loop_
 _atom_site_type_symbol
 _atom_site_label
 _atom_site_symmetry_multiplicity
 _atom_site_fract_x
 _atom_site_fract_y
 _atom_site_fract_z
 _atom_site_occupancy
  Co  Co1  1  -0.000000  0.000000  0.500000  1
  Co  Co2  1  0.500000  0.500000  0.500000  1
  C  C3  1  0.829820  0.263334  0.525630  1
  C  C4  1  0.329820  0.236666  0.525630  1
  C  C5  1  0.670180  0.763334  0.474370  1
  C  C6  1  0.170180  0.736666  0.474370  1
  O  O7  1  0.837090  0.121090  0.559083  1
  O  O8  1  0.736573  0.405425  0.539118  1
  O  O9  1  0.569323  0.743597  0.523051  1
  O  O10  1  0.930677  0.243597  0.476949  1
  O  O11  1  0.763427  0.905425  0.460882  1
  O  O12  1  0.662910  0.621090  0.440917  1
  O  O13  1  0.337090  0.378910  0.559083  1
  O  O14  1  0.236573  0.094575  0.539118  1
  O  O15  1  0.069323  0.756403  0.523051  1
  O  O16  1  0.430677  0.256403  0.476949  1
  O  O17  1  0.263427  0.594575  0.460882  1
  O  O18  1  0.162910  0.878910  0.440917  1
