# generated using pymatgen
data_SrFe2S2O
_symmetry_space_group_name_H-M   'P 1'
_cell_length_a   4.45424102
_cell_length_b   9.32995305
_cell_length_c   26.60507800
_cell_angle_alpha   90.00000000
_cell_angle_beta   90.00000000
_cell_angle_gamma   90.00000000
_symmetry_Int_Tables_number   1
_chemical_formula_structural   SrFe2S2O
_chemical_formula_sum   'Sr2 Fe4 S4 O2'
_cell_volume   1105.65009590
_cell_formula_units_Z   2
loop_
 _symmetry_equiv_pos_site_id
 _symmetry_equiv_pos_as_xyz
  1  'x, y, z'
loop_
 _atom_site_type_symbol
 _atom_site_label
 _atom_site_symmetry_multiplicity
 _atom_site_fract_x
 _atom_site_fract_y
 _atom_site_fract_z
 _atom_site_occupancy
  Sr  Sr1  1  0.500000  0.000000  0.399086  1
  Sr  Sr2  1  -0.000000  0.500000  0.600914  1
  Fe  Fe3  1  0.500000  0.309429  0.534272  1
  Fe  Fe4  1  0.500000  0.690571  0.534272  1
  Fe  Fe5  1  0.000000  0.809429  0.465728  1
  Fe  Fe6  1  0.000000  0.190571  0.465728  1
  S  S7  1  0.500000  0.284793  0.442071  1
  S  S8  1  0.500000  0.715207  0.442071  1
  S  S9  1  -0.000000  0.784793  0.557929  1
  S  S10  1  0.000000  0.215207  0.557929  1
  O  O11  1  0.500000  0.500000  0.568393  1
  O  O12  1  -0.000000  0.000000  0.431607  1
