# generated using pymatgen
data_Ga2Fe2S5
_symmetry_space_group_name_H-M   'P 1'
_cell_length_a   3.59107341
_cell_length_b   3.59109908
_cell_length_c   32.10405105
_cell_angle_alpha   90.08097164
_cell_angle_beta   90.10641476
_cell_angle_gamma   60.03717324
_symmetry_Int_Tables_number   1
_chemical_formula_structural   Ga2Fe2S5
_chemical_formula_sum   'Ga2 Fe2 S5'
_cell_volume   358.67729032
_cell_formula_units_Z   1
loop_
 _symmetry_equiv_pos_site_id
 _symmetry_equiv_pos_as_xyz
  1  'x, y, z'
loop_
 _atom_site_type_symbol
 _atom_site_label
 _atom_site_symmetry_multiplicity
 _atom_site_fract_x
 _atom_site_fract_y
 _atom_site_fract_z
 _atom_site_occupancy
  Ga  Ga1  1  0.349266  0.343286  0.653442  1
  Ga  Ga2  1  0.343714  0.339530  0.346549  1
  Fe  Fe3  1  0.012759  0.007671  0.455783  1
  Fe  Fe4  1  0.014900  0.008245  0.544224  1
  S  S5  1  0.683231  0.676983  0.686801  1
  S  S6  1  0.345781  0.340945  0.416366  1
  S  S7  1  0.676751  0.672989  0.313178  1
  S  S8  1  0.348970  0.342123  0.583635  1
  S  S9  1  0.680466  0.674618  0.500024  1
