# generated using pymatgen
data_H5W
_symmetry_space_group_name_H-M   'P 1'
_cell_length_a   2.87233108
_cell_length_b   6.12757621
_cell_length_c   22.06266937
_cell_angle_alpha   90.00000000
_cell_angle_beta   90.00000000
_cell_angle_gamma   90.00000000
_symmetry_Int_Tables_number   1
_chemical_formula_structural   H5W
_chemical_formula_sum   'H10 W2'
_cell_volume   388.31241476
_cell_formula_units_Z   2
loop_
 _symmetry_equiv_pos_site_id
 _symmetry_equiv_pos_as_xyz
  1  'x, y, z'
loop_
 _atom_site_type_symbol
 _atom_site_label
 _atom_site_symmetry_multiplicity
 _atom_site_fract_x
 _atom_site_fract_y
 _atom_site_fract_z
 _atom_site_occupancy
  H  H1  1  0.454912  0.612206  0.558819  1
  H  H2  1  0.454912  0.387794  0.441181  1
  H  H3  1  0.454912  0.887794  0.558819  1
  H  H4  1  0.454912  0.112206  0.441181  1
  H  H5  1  0.954536  0.569450  0.454477  1
  H  H6  1  0.954536  0.430550  0.545523  1
  H  H7  1  0.954536  0.930550  0.454477  1
  H  H8  1  0.954536  0.069450  0.545523  1
  H  H9  1  0.454849  0.750000  0.466483  1
  H  H10  1  0.454849  0.250000  0.533517  1
  W  W11  1  0.954776  0.750000  0.518599  1
  W  W12  1  0.954776  0.250000  0.481401  1
