# generated using pymatgen
data_MnF4
_symmetry_space_group_name_H-M   'P 1'
_cell_length_a   4.66242271
_cell_length_b   5.33268799
_cell_length_c   23.11067600
_cell_angle_alpha   90.00000000
_cell_angle_beta   90.00000000
_cell_angle_gamma   90.00000000
_symmetry_Int_Tables_number   1
_chemical_formula_structural   MnF4
_chemical_formula_sum   'Mn2 F8'
_cell_volume   574.60641314
_cell_formula_units_Z   2
loop_
 _symmetry_equiv_pos_site_id
 _symmetry_equiv_pos_as_xyz
  1  'x, y, z'
loop_
 _atom_site_type_symbol
 _atom_site_label
 _atom_site_symmetry_multiplicity
 _atom_site_fract_x
 _atom_site_fract_y
 _atom_site_fract_z
 _atom_site_occupancy
  Mn  Mn1  1  0.500000  0.000000  0.500000  1
  Mn  Mn2  1  -0.000000  0.500000  0.500000  1
  F  F3  1  0.724076  0.269722  0.470647  1
  F  F4  1  0.775924  0.769722  0.470647  1
  F  F5  1  0.321028  0.985988  0.432806  1
  F  F6  1  0.178972  0.485988  0.432806  1
  F  F7  1  0.821028  0.514012  0.567194  1
  F  F8  1  0.678972  0.014012  0.567194  1
  F  F9  1  0.224076  0.230278  0.529353  1
  F  F10  1  0.275924  0.730278  0.529353  1
