# generated using pymatgen
data_Er2Te5O13
_symmetry_space_group_name_H-M   'P 1'
_cell_length_a   6.94292751
_cell_length_b   8.57501743
_cell_length_c   30.98017700
_cell_angle_alpha   90.00000000
_cell_angle_beta   90.00000000
_cell_angle_gamma   75.18529653
_symmetry_Int_Tables_number   1
_chemical_formula_structural   Er2Te5O13
_chemical_formula_sum   'Er4 Te10 O26'
_cell_volume   1783.11446581
_cell_formula_units_Z   2
loop_
 _symmetry_equiv_pos_site_id
 _symmetry_equiv_pos_as_xyz
  1  'x, y, z'
loop_
 _atom_site_type_symbol
 _atom_site_label
 _atom_site_symmetry_multiplicity
 _atom_site_fract_x
 _atom_site_fract_y
 _atom_site_fract_z
 _atom_site_occupancy
  Er  Er1  1  0.564637  0.530988  0.562117  1
  Er  Er2  1  0.021209  0.727370  0.583363  1
  Er  Er3  1  0.435363  0.469012  0.437883  1
  Er  Er4  1  0.978791  0.272630  0.416637  1
  Te  Te5  1  0.125384  0.805460  0.377750  1
  Te  Te6  1  0.241995  0.382275  0.324148  1
  Te  Te7  1  0.714723  0.117915  0.508660  1
  Te  Te8  1  0.540468  0.088696  0.397050  1
  Te  Te9  1  0.863762  0.654145  0.464635  1
  Te  Te10  1  0.758005  0.617725  0.675852  1
  Te  Te11  1  0.459532  0.911304  0.602950  1
  Te  Te12  1  0.285277  0.882085  0.491340  1
  Te  Te13  1  0.874616  0.194540  0.622250  1
  Te  Te14  1  0.136238  0.345855  0.535365  1
  O  O15  1  0.686193  0.488369  0.632185  1
  O  O16  1  0.010698  0.353827  0.349541  1
  O  O17  1  0.640871  0.005110  0.457927  1
  O  O18  1  0.059761  0.819247  0.514072  1
  O  O19  1  0.885519  0.510191  0.536646  1
  O  O20  1  0.334637  0.741454  0.597239  1
  O  O21  1  0.426798  0.179572  0.334843  1
  O  O22  1  0.089286  0.264796  0.595164  1
  O  O23  1  0.311241  0.223752  0.423398  1
  O  O24  1  0.313807  0.511631  0.367815  1
  O  O25  1  0.910714  0.735204  0.404836  1
  O  O26  1  0.114481  0.489809  0.463354  1
  O  O27  1  0.683637  0.259174  0.577919  1
  O  O28  1  0.688759  0.776247  0.576602  1
  O  O29  1  0.745177  0.506225  0.436491  1
  O  O30  1  0.466912  0.673814  0.500133  1
  O  O31  1  0.573202  0.820428  0.665157  1
  O  O32  1  0.940239  0.180753  0.485928  1
  O  O33  1  0.359129  0.994890  0.542073  1
  O  O34  1  0.254823  0.493775  0.563509  1
  O  O35  1  0.957969  0.979789  0.604511  1
  O  O36  1  0.042031  0.020211  0.395489  1
  O  O37  1  0.665363  0.258546  0.402761  1
  O  O38  1  0.533088  0.326186  0.499867  1
  O  O39  1  0.316363  0.740826  0.422081  1
  O  O40  1  0.989302  0.646173  0.650459  1
