# generated using pymatgen
data_BaNiSn3
_symmetry_space_group_name_H-M   'P 1'
_cell_length_a   4.88503599
_cell_length_b   4.88503599
_cell_length_c   23.55978700
_cell_angle_alpha   90.00000000
_cell_angle_beta   90.00000000
_cell_angle_gamma   90.00000000
_symmetry_Int_Tables_number   1
_chemical_formula_structural   BaNiSn3
_chemical_formula_sum   'Ba1 Ni1 Sn3'
_cell_volume   562.22078231
_cell_formula_units_Z   1
loop_
 _symmetry_equiv_pos_site_id
 _symmetry_equiv_pos_as_xyz
  1  'x, y, z'
loop_
 _atom_site_type_symbol
 _atom_site_label
 _atom_site_symmetry_multiplicity
 _atom_site_fract_x
 _atom_site_fract_y
 _atom_site_fract_z
 _atom_site_occupancy
  Ba  Ba1  1  0.500000  0.500000  0.568556  1
  Ni  Ni2  1  0.000000  -0.000000  0.471704  1
  Sn  Sn3  1  -0.000000  0.500000  0.441836  1
  Sn  Sn4  1  -0.000000  0.000000  0.576067  1
  Sn  Sn5  1  0.500000  0.000000  0.441836  1
