# generated using pymatgen
data_Ti(CoO3)2
_symmetry_space_group_name_H-M   'P 1'
_cell_length_a   3.03788291
_cell_length_b   7.55094200
_cell_length_c   21.93585200
_cell_angle_alpha   90.00000000
_cell_angle_beta   90.00000000
_cell_angle_gamma   78.38120135
_symmetry_Int_Tables_number   1
_chemical_formula_structural   Ti(CoO3)2
_chemical_formula_sum   'Ti1 Co2 O6'
_cell_volume   492.87319830
_cell_formula_units_Z   1
loop_
 _symmetry_equiv_pos_site_id
 _symmetry_equiv_pos_as_xyz
  1  'x, y, z'
loop_
 _atom_site_type_symbol
 _atom_site_label
 _atom_site_symmetry_multiplicity
 _atom_site_fract_x
 _atom_site_fract_y
 _atom_site_fract_z
 _atom_site_occupancy
  Ti  Ti1  1  0.371991  0.333746  0.500303  1
  Co  Co2  1  0.994582  0.997140  0.493423  1
  Co  Co3  1  0.657325  0.670311  0.506328  1
  O  O4  1  0.468045  0.113989  0.451851  1
  O  O5  1  0.775765  0.459744  0.458499  1
  O  O6  1  0.047451  0.785345  0.456514  1
  O  O7  1  0.902310  0.207351  0.541690  1
  O  O8  1  0.247291  0.553859  0.548189  1
  O  O9  1  0.498807  0.882005  0.543203  1
