# generated using pymatgen
data_InSnCl3
_symmetry_space_group_name_H-M   'P 1'
_cell_length_a   5.56847061
_cell_length_b   5.55867321
_cell_length_c   22.64016900
_cell_angle_alpha   90.00000000
_cell_angle_beta   90.00000000
_cell_angle_gamma   88.52235449
_symmetry_Int_Tables_number   1
_chemical_formula_structural   InSnCl3
_chemical_formula_sum   'In1 Sn1 Cl3'
_cell_volume   700.55509518
_cell_formula_units_Z   1
loop_
 _symmetry_equiv_pos_site_id
 _symmetry_equiv_pos_as_xyz
  1  'x, y, z'
loop_
 _atom_site_type_symbol
 _atom_site_label
 _atom_site_symmetry_multiplicity
 _atom_site_fract_x
 _atom_site_fract_y
 _atom_site_fract_z
 _atom_site_occupancy
  In  In1  1  0.100311  0.103647  0.551923  1
  Sn  Sn2  1  0.509992  0.513257  0.452686  1
  Cl  Cl3  1  0.485189  0.006723  0.464845  1
  Cl  Cl4  1  0.483314  0.492987  0.565273  1
  Cl  Cl5  1  0.996058  0.487102  0.465273  1
