# generated using pymatgen
data_Co(HO)2
_symmetry_space_group_name_H-M   'P 1'
_cell_length_a   3.44709314
_cell_length_b   3.44709301
_cell_length_c   22.79612200
_cell_angle_alpha   90.00000000
_cell_angle_beta   90.00000000
_cell_angle_gamma   60.25836340
_symmetry_Int_Tables_number   1
_chemical_formula_structural   Co(HO)2
_chemical_formula_sum   'Co1 H2 O2'
_cell_volume   235.19192530
_cell_formula_units_Z   1
loop_
 _symmetry_equiv_pos_site_id
 _symmetry_equiv_pos_as_xyz
  1  'x, y, z'
loop_
 _atom_site_type_symbol
 _atom_site_label
 _atom_site_symmetry_multiplicity
 _atom_site_fract_x
 _atom_site_fract_y
 _atom_site_fract_z
 _atom_site_occupancy
  Co  Co1  1  0.000517  0.000517  0.472726  1
  H  H2  1  0.665737  0.665737  0.490102  1
  H  H3  1  0.333021  0.333021  0.566664  1
  O  O4  1  0.666995  0.666995  0.446564  1
  O  O5  1  0.333399  0.333399  0.523945  1
