# generated using pymatgen
data_BiS
_symmetry_space_group_name_H-M   'P 1'
_cell_length_a   5.75151565
_cell_length_b   17.89690898
_cell_length_c   23.12089200
_cell_angle_alpha   90.00000000
_cell_angle_beta   90.00000000
_cell_angle_gamma   94.46123792
_symmetry_Int_Tables_number   1
_chemical_formula_structural   BiS
_chemical_formula_sum   'Bi12 S12'
_cell_volume   2372.72327747
_cell_formula_units_Z   12
loop_
 _symmetry_equiv_pos_site_id
 _symmetry_equiv_pos_as_xyz
  1  'x, y, z'
loop_
 _atom_site_type_symbol
 _atom_site_label
 _atom_site_symmetry_multiplicity
 _atom_site_fract_x
 _atom_site_fract_y
 _atom_site_fract_z
 _atom_site_occupancy
  Bi  Bi1  1  0.033910  0.085994  0.432826  1
  Bi  Bi2  1  0.217176  0.421834  0.432281  1
  Bi  Bi3  1  0.322030  0.578050  0.567861  1
  Bi  Bi4  1  0.403159  0.748307  0.433911  1
  Bi  Bi5  1  0.991827  0.914716  0.432881  1
  Bi  Bi6  1  0.132010  0.250886  0.566297  1
  Bi  Bi7  1  0.903159  0.748307  0.566089  1
  Bi  Bi8  1  0.717176  0.421834  0.567719  1
  Bi  Bi9  1  0.822030  0.578050  0.432139  1
  Bi  Bi10  1  0.533910  0.085994  0.567174  1
  Bi  Bi11  1  0.632010  0.250886  0.433703  1
  Bi  Bi12  1  0.491827  0.914716  0.567119  1
  S  S13  1  0.502982  0.899184  0.447622  1
  S  S14  1  0.159791  0.267121  0.445488  1
  S  S15  1  0.023357  0.100719  0.552357  1
  S  S16  1  0.002982  0.899184  0.552378  1
  S  S17  1  0.879418  0.733177  0.445260  1
  S  S18  1  0.523357  0.100719  0.447643  1
  S  S19  1  0.341555  0.580981  0.447083  1
  S  S20  1  0.197580  0.419029  0.553032  1
  S  S21  1  0.659791  0.267121  0.554512  1
  S  S22  1  0.379418  0.733177  0.554740  1
  S  S23  1  0.697580  0.419029  0.446968  1
  S  S24  1  0.841555  0.580981  0.552917  1
