# generated using pymatgen
data_Bi2O3
_symmetry_space_group_name_H-M   'P 1'
_cell_length_a   3.70610215
_cell_length_b   5.47964047
_cell_length_c   21.90688775
_cell_angle_alpha   89.49609101
_cell_angle_beta   89.99948442
_cell_angle_gamma   89.99677637
_symmetry_Int_Tables_number   1
_chemical_formula_structural   Bi2O3
_chemical_formula_sum   'Bi2 O3'
_cell_volume   444.87022096
_cell_formula_units_Z   1
loop_
 _symmetry_equiv_pos_site_id
 _symmetry_equiv_pos_as_xyz
  1  'x, y, z'
loop_
 _atom_site_type_symbol
 _atom_site_label
 _atom_site_symmetry_multiplicity
 _atom_site_fract_x
 _atom_site_fract_y
 _atom_site_fract_z
 _atom_site_occupancy
  Bi  Bi1  1  0.000066  0.171518  0.544064  1
  Bi  Bi2  1  0.500091  0.602455  0.458472  1
  O  O3  1  0.000065  0.332806  0.454688  1
  O  O4  1  0.000016  0.818170  0.497037  1
  O  O5  1  0.500064  0.407341  0.545739  1
