# generated using pymatgen
data_SnP2O7
_symmetry_space_group_name_H-M   'P 1'
_cell_length_a   6.47258389
_cell_length_b   6.23079421
_cell_length_c   24.87655400
_cell_angle_alpha   90.00000000
_cell_angle_beta   90.00000000
_cell_angle_gamma   83.19519327
_symmetry_Int_Tables_number   1
_chemical_formula_structural   SnP2O7
_chemical_formula_sum   'Sn2 P4 O14'
_cell_volume   996.18760116
_cell_formula_units_Z   2
loop_
 _symmetry_equiv_pos_site_id
 _symmetry_equiv_pos_as_xyz
  1  'x, y, z'
loop_
 _atom_site_type_symbol
 _atom_site_label
 _atom_site_symmetry_multiplicity
 _atom_site_fract_x
 _atom_site_fract_y
 _atom_site_fract_z
 _atom_site_occupancy
  Sn  Sn1  1  0.290274  0.840079  0.564997  1
  Sn  Sn2  1  0.709726  0.159921  0.435003  1
  P  P3  1  0.222637  0.131942  0.458126  1
  P  P4  1  0.777363  0.868058  0.541874  1
  P  P5  1  0.161638  0.347665  0.569516  1
  P  P6  1  0.838362  0.652335  0.430484  1
  O  O7  1  0.973736  0.878576  0.575101  1
  O  O8  1  0.054970  0.594821  0.414260  1
  O  O9  1  0.945030  0.405179  0.585740  1
  O  O10  1  0.683992  0.477005  0.423847  1
  O  O11  1  0.175546  0.306499  0.503829  1
  O  O12  1  0.396591  0.193993  0.421975  1
  O  O13  1  0.287055  0.140905  0.594348  1
  O  O14  1  0.026264  0.121424  0.424899  1
  O  O15  1  0.824454  0.693501  0.496171  1
  O  O16  1  0.291598  0.911254  0.485933  1
  O  O17  1  0.316008  0.522995  0.576153  1
  O  O18  1  0.712945  0.859095  0.405652  1
  O  O19  1  0.603409  0.806007  0.578025  1
  O  O20  1  0.708402  0.088747  0.514067  1
