# generated using pymatgen
data_Co3SbO8
_symmetry_space_group_name_H-M   'P 1'
_cell_length_a   6.00000757
_cell_length_b   6.00000704
_cell_length_c   22.10759755
_cell_angle_alpha   90.00000000
_cell_angle_beta   90.00000000
_cell_angle_gamma   59.99999701
_symmetry_Int_Tables_number   1
_chemical_formula_structural   Co3SbO8
_chemical_formula_sum   'Co3 Sb1 O8'
_cell_volume   689.24833657
_cell_formula_units_Z   1
loop_
 _symmetry_equiv_pos_site_id
 _symmetry_equiv_pos_as_xyz
  1  'x, y, z'
loop_
 _atom_site_type_symbol
 _atom_site_label
 _atom_site_symmetry_multiplicity
 _atom_site_fract_x
 _atom_site_fract_y
 _atom_site_fract_z
 _atom_site_occupancy
  Co  Co1  1  0.166667  0.166667  0.500000  1
  Co  Co2  1  0.166667  0.666667  0.500000  1
  Co  Co3  1  0.666667  0.166667  0.500000  1
  Sb  Sb4  1  0.666667  0.666667  0.500000  1
  O  O5  1  0.328799  0.835601  0.455015  1
  O  O6  1  0.835601  0.328799  0.455015  1
  O  O7  1  0.835601  0.835601  0.455015  1
  O  O8  1  0.333333  0.333333  0.456577  1
  O  O9  1  0.000000  0.000000  0.543423  1
  O  O10  1  0.497733  0.497733  0.544985  1
  O  O11  1  0.497733  0.004535  0.544985  1
  O  O12  1  0.004535  0.497733  0.544985  1
