# generated using pymatgen
data_Sr3Fe2Br2O5
_symmetry_space_group_name_H-M   'P 1'
_cell_length_a   3.98145308
_cell_length_b   3.98145308
_cell_length_c   30.38298900
_cell_angle_alpha   90.00000000
_cell_angle_beta   90.00000000
_cell_angle_gamma   90.00000000
_symmetry_Int_Tables_number   1
_chemical_formula_structural   Sr3Fe2Br2O5
_chemical_formula_sum   'Sr3 Fe2 Br2 O5'
_cell_volume   481.63018846
_cell_formula_units_Z   1
loop_
 _symmetry_equiv_pos_site_id
 _symmetry_equiv_pos_as_xyz
  1  'x, y, z'
loop_
 _atom_site_type_symbol
 _atom_site_label
 _atom_site_symmetry_multiplicity
 _atom_site_fract_x
 _atom_site_fract_y
 _atom_site_fract_z
 _atom_site_occupancy
  Sr  Sr1  1  0.500000  0.500000  0.623983  1
  Sr  Sr2  1  0.500000  0.500000  0.376017  1
  Sr  Sr3  1  0.500000  0.500000  0.500000  1
  Fe  Fe4  1  -0.000000  0.000000  0.563171  1
  Fe  Fe5  1  0.000000  0.000000  0.436829  1
  Br  Br6  1  0.000000  0.000000  0.670745  1
  Br  Br7  1  -0.000000  0.000000  0.329255  1
  O  O8  1  0.500000  -0.000000  0.428087  1
  O  O9  1  0.500000  -0.000000  0.571913  1
  O  O10  1  0.000000  0.500000  0.571913  1
  O  O11  1  -0.000000  -0.000000  0.500000  1
  O  O12  1  -0.000000  0.500000  0.428087  1
