# generated using pymatgen
data_InAg(PSe3)2
_symmetry_space_group_name_H-M   'P 1'
_cell_length_a   6.55915507
_cell_length_b   6.55915480
_cell_length_c   23.64261433
_cell_angle_alpha   90.00000000
_cell_angle_beta   90.00000000
_cell_angle_gamma   119.99999638
_symmetry_Int_Tables_number   1
_chemical_formula_structural   InAg(PSe3)2
_chemical_formula_sum   'In1 Ag1 P2 Se6'
_cell_volume   880.89049613
_cell_formula_units_Z   1
loop_
 _symmetry_equiv_pos_site_id
 _symmetry_equiv_pos_as_xyz
  1  'x, y, z'
loop_
 _atom_site_type_symbol
 _atom_site_label
 _atom_site_symmetry_multiplicity
 _atom_site_fract_x
 _atom_site_fract_y
 _atom_site_fract_z
 _atom_site_occupancy
  In  In1  1  -0.000000  0.000000  0.500000  1
  Ag  Ag2  1  0.666667  0.333333  0.500000  1
  P  P3  1  0.333333  0.666667  0.451461  1
  P  P4  1  0.333333  0.666667  0.548539  1
  Se  Se5  1  0.015978  0.336619  0.575695  1
  Se  Se6  1  0.320641  0.984022  0.575695  1
  Se  Se7  1  0.663381  0.679359  0.575695  1
  Se  Se8  1  0.015978  0.679359  0.424305  1
  Se  Se9  1  0.320641  0.336619  0.424305  1
  Se  Se10  1  0.663381  0.984022  0.424305  1
