# generated using pymatgen
data_AgBi2F12
_symmetry_space_group_name_H-M   'P 1'
_cell_length_a   5.14923259
_cell_length_b   5.60561343
_cell_length_c   28.06182100
_cell_angle_alpha   90.00000000
_cell_angle_beta   90.00000000
_cell_angle_gamma   114.88094802
_symmetry_Int_Tables_number   1
_chemical_formula_structural   AgBi2F12
_chemical_formula_sum   'Ag1 Bi2 F12'
_cell_volume   734.81306695
_cell_formula_units_Z   1
loop_
 _symmetry_equiv_pos_site_id
 _symmetry_equiv_pos_as_xyz
  1  'x, y, z'
loop_
 _atom_site_type_symbol
 _atom_site_label
 _atom_site_symmetry_multiplicity
 _atom_site_fract_x
 _atom_site_fract_y
 _atom_site_fract_z
 _atom_site_occupancy
  Ag  Ag1  1  0.831323  0.909466  0.500000  1
  Bi  Bi2  1  0.104614  0.514725  0.586985  1
  Bi  Bi3  1  0.558031  0.304207  0.413015  1
  F  F4  1  0.523666  0.594375  0.459544  1
  F  F5  1  0.138979  0.224558  0.540456  1
  F  F6  1  0.984224  0.541432  0.412263  1
  F  F7  1  0.073780  0.826540  0.618547  1
  F  F8  1  0.588865  0.992392  0.381453  1
  F  F9  1  0.527069  0.726997  0.567189  1
  F  F10  1  0.135576  0.091936  0.432811  1
  F  F11  1  0.035833  0.665293  0.519396  1
  F  F12  1  0.626812  0.153639  0.480604  1
  F  F13  1  0.208456  0.364474  0.645427  1
  F  F14  1  0.454189  0.454458  0.354573  1
  F  F15  1  0.678422  0.277500  0.587737  1
