# generated using pymatgen
data_SrBiS2F
_symmetry_space_group_name_H-M   'P 1'
_cell_length_a   4.03353620
_cell_length_b   4.03353620
_cell_length_c   31.08992000
_cell_angle_alpha   90.00000000
_cell_angle_beta   90.00000000
_cell_angle_gamma   90.00000000
_symmetry_Int_Tables_number   1
_chemical_formula_structural   SrBiS2F
_chemical_formula_sum   'Sr2 Bi2 S4 F2'
_cell_volume   505.81478831
_cell_formula_units_Z   2
loop_
 _symmetry_equiv_pos_site_id
 _symmetry_equiv_pos_as_xyz
  1  'x, y, z'
loop_
 _atom_site_type_symbol
 _atom_site_label
 _atom_site_symmetry_multiplicity
 _atom_site_fract_x
 _atom_site_fract_y
 _atom_site_fract_z
 _atom_site_occupancy
  Sr  Sr1  1  0.500000  -0.000000  0.547422  1
  Sr  Sr2  1  0.000000  0.500000  0.452578  1
  Bi  Bi3  1  0.500000  0.000000  0.332079  1
  Bi  Bi4  1  -0.000000  0.500000  0.667921  1
  S  S5  1  0.500000  -0.000000  0.678334  1
  S  S6  1  0.000000  0.500000  0.321666  1
  S  S7  1  0.500000  0.000000  0.412789  1
  S  S8  1  0.000000  0.500000  0.587211  1
  F  F9  1  0.000000  -0.000000  0.500000  1
  F  F10  1  0.500000  0.500000  0.500000  1
