# generated using pymatgen
data_PrBrO
_symmetry_space_group_name_H-M   'P 1'
_cell_length_a   4.04994805
_cell_length_b   4.04994876
_cell_length_c   26.96465900
_cell_angle_alpha   90.00000000
_cell_angle_beta   90.00000000
_cell_angle_gamma   59.99999772
_symmetry_Int_Tables_number   1
_chemical_formula_structural   PrBrO
_chemical_formula_sum   'Pr2 Br2 O2'
_cell_volume   383.02271927
_cell_formula_units_Z   2
loop_
 _symmetry_equiv_pos_site_id
 _symmetry_equiv_pos_as_xyz
  1  'x, y, z'
loop_
 _atom_site_type_symbol
 _atom_site_label
 _atom_site_symmetry_multiplicity
 _atom_site_fract_x
 _atom_site_fract_y
 _atom_site_fract_z
 _atom_site_occupancy
  Pr  Pr1  1  0.333333  0.333333  0.444076  1
  Pr  Pr2  1  0.000000  0.000000  0.555924  1
  Br  Br3  1  0.666667  0.666667  0.628995  1
  Br  Br4  1  0.666667  0.666667  0.371005  1
  O  O5  1  0.333333  0.333333  0.533106  1
  O  O6  1  0.000000  0.000000  0.466894  1
