# generated using pymatgen
data_Mn(CoO3)2
_symmetry_space_group_name_H-M   'P 1'
_cell_length_a   2.87188821
_cell_length_b   7.54102080
_cell_length_c   21.90170300
_cell_angle_alpha   90.00000000
_cell_angle_beta   90.00000000
_cell_angle_gamma   100.97716373
_symmetry_Int_Tables_number   1
_chemical_formula_structural   Mn(CoO3)2
_chemical_formula_sum   'Mn1 Co2 O6'
_cell_volume   465.64585568
_cell_formula_units_Z   1
loop_
 _symmetry_equiv_pos_site_id
 _symmetry_equiv_pos_as_xyz
  1  'x, y, z'
loop_
 _atom_site_type_symbol
 _atom_site_label
 _atom_site_symmetry_multiplicity
 _atom_site_fract_x
 _atom_site_fract_y
 _atom_site_fract_z
 _atom_site_occupancy
  Mn  Mn1  1  -0.000000  -0.000000  0.500000  1
  Co  Co2  1  0.667720  0.335440  0.500113  1
  Co  Co3  1  0.332280  0.664560  0.499887  1
  O  O4  1  0.113633  0.227266  0.456609  1
  O  O5  1  0.442700  0.885398  0.456091  1
  O  O6  1  0.777559  0.555119  0.456993  1
  O  O7  1  0.557300  0.114602  0.543909  1
  O  O8  1  0.886367  0.772734  0.543391  1
  O  O9  1  0.222441  0.444881  0.543007  1
