# generated using pymatgen
data_SbN
_symmetry_space_group_name_H-M   'P 1'
_cell_length_a   3.32856541
_cell_length_b   3.90777049
_cell_length_c   22.50090279
_cell_angle_alpha   90.13049511
_cell_angle_beta   89.99068517
_cell_angle_gamma   90.07891994
_symmetry_Int_Tables_number   1
_chemical_formula_structural   SbN
_chemical_formula_sum   'Sb2 N2'
_cell_volume   292.67427024
_cell_formula_units_Z   2
loop_
 _symmetry_equiv_pos_site_id
 _symmetry_equiv_pos_as_xyz
  1  'x, y, z'
loop_
 _atom_site_type_symbol
 _atom_site_label
 _atom_site_symmetry_multiplicity
 _atom_site_fract_x
 _atom_site_fract_y
 _atom_site_fract_z
 _atom_site_occupancy
  Sb  Sb1  1  0.591240  0.761436  0.555369  1
  Sb  Sb2  1  0.091380  0.259944  0.444640  1
  N  N3  1  0.590678  0.949468  0.467318  1
  N  N4  1  0.090577  0.450504  0.532672  1
