# generated using pymatgen
data_Pb2O3
_symmetry_space_group_name_H-M   'P 1'
_cell_length_a   4.76333350
_cell_length_b   4.78203968
_cell_length_c   25.52661100
_cell_angle_alpha   90.00000000
_cell_angle_beta   90.00000000
_cell_angle_gamma   90.00000000
_symmetry_Int_Tables_number   1
_chemical_formula_structural   Pb2O3
_chemical_formula_sum   'Pb4 O6'
_cell_volume   581.45662738
_cell_formula_units_Z   2
loop_
 _symmetry_equiv_pos_site_id
 _symmetry_equiv_pos_as_xyz
  1  'x, y, z'
loop_
 _atom_site_type_symbol
 _atom_site_label
 _atom_site_symmetry_multiplicity
 _atom_site_fract_x
 _atom_site_fract_y
 _atom_site_fract_z
 _atom_site_occupancy
  Pb  Pb1  1  0.750177  0.750000  0.499584  1
  Pb  Pb2  1  0.249823  0.250000  0.500416  1
  Pb  Pb3  1  0.747902  0.250000  0.392554  1
  Pb  Pb4  1  0.252098  0.750000  0.607446  1
  O  O5  1  0.747446  0.750000  0.420077  1
  O  O6  1  0.749962  0.250000  0.487374  1
  O  O7  1  0.250038  0.750000  0.512626  1
  O  O8  1  0.750839  0.750000  0.578990  1
  O  O9  1  0.252554  0.250000  0.579923  1
  O  O10  1  0.249161  0.250000  0.421010  1
