# generated using pymatgen
data_Ta2I5
_symmetry_space_group_name_H-M   'P 1'
_cell_length_a   6.41499087
_cell_length_b   6.42254226
_cell_length_c   24.89435400
_cell_angle_alpha   90.00000000
_cell_angle_beta   90.00000000
_cell_angle_gamma   72.37149511
_symmetry_Int_Tables_number   1
_chemical_formula_structural   Ta2I5
_chemical_formula_sum   'Ta2 I5'
_cell_volume   977.49615443
_cell_formula_units_Z   1
loop_
 _symmetry_equiv_pos_site_id
 _symmetry_equiv_pos_as_xyz
  1  'x, y, z'
loop_
 _atom_site_type_symbol
 _atom_site_label
 _atom_site_symmetry_multiplicity
 _atom_site_fract_x
 _atom_site_fract_y
 _atom_site_fract_z
 _atom_site_occupancy
  Ta  Ta1  1  0.743140  0.660057  0.501093  1
  Ta  Ta2  1  0.393690  0.010687  0.501338  1
  I  I3  1  0.066271  0.333693  0.568905  1
  I  I4  1  0.565508  0.337071  0.465170  1
  I  I5  1  0.580611  0.846530  0.597664  1
  I  I6  1  0.568214  0.835496  0.399636  1
  I  I7  1  0.067219  0.837594  0.466194  1
