# generated using pymatgen
data_LiCuS2
_symmetry_space_group_name_H-M   'P 1'
_cell_length_a   3.37610885
_cell_length_b   5.38747095
_cell_length_c   21.58105700
_cell_angle_alpha   90.00000000
_cell_angle_beta   90.00000000
_cell_angle_gamma   89.61349663
_symmetry_Int_Tables_number   1
_chemical_formula_structural   LiCuS2
_chemical_formula_sum   'Li1 Cu1 S2'
_cell_volume   392.52218884
_cell_formula_units_Z   1
loop_
 _symmetry_equiv_pos_site_id
 _symmetry_equiv_pos_as_xyz
  1  'x, y, z'
loop_
 _atom_site_type_symbol
 _atom_site_label
 _atom_site_symmetry_multiplicity
 _atom_site_fract_x
 _atom_site_fract_y
 _atom_site_fract_z
 _atom_site_occupancy
  Li  Li1  1  0.998145  0.358606  0.500026  1
  Cu  Cu2  1  0.500363  0.859408  0.499993  1
  S  S3  1  0.998986  0.996954  0.441725  1
  S  S4  1  0.001934  0.720631  0.558255  1
