# generated using pymatgen
data_Te6MoBr3
_symmetry_space_group_name_H-M   'P 1'
_cell_length_a   8.47722483
_cell_length_b   17.07186808
_cell_length_c   30.56616600
_cell_angle_alpha   90.00000000
_cell_angle_beta   90.00000000
_cell_angle_gamma   95.26554267
_symmetry_Int_Tables_number   1
_chemical_formula_structural   Te6MoBr3
_chemical_formula_sum   'Te24 Mo4 Br12'
_cell_volume   4404.93135164
_cell_formula_units_Z   4
loop_
 _symmetry_equiv_pos_site_id
 _symmetry_equiv_pos_as_xyz
  1  'x, y, z'
loop_
 _atom_site_type_symbol
 _atom_site_label
 _atom_site_symmetry_multiplicity
 _atom_site_fract_x
 _atom_site_fract_y
 _atom_site_fract_z
 _atom_site_occupancy
  Te  Te1  1  0.283970  0.587323  0.403392  1
  Te  Te2  1  0.955291  0.413893  0.591625  1
  Te  Te3  1  0.198512  0.689360  0.618414  1
  Te  Te4  1  0.667399  0.328478  0.612329  1
  Te  Te5  1  0.083932  0.328980  0.475985  1
  Te  Te6  1  0.117274  0.843479  0.599967  1
  Te  Te7  1  0.636768  0.786030  0.503509  1
  Te  Te8  1  0.093662  0.707838  0.496491  1
  Te  Te9  1  0.526582  0.758626  0.626429  1
  Te  Te10  1  0.775140  0.079975  0.408375  1
  Te  Te11  1  0.613157  0.650389  0.400033  1
  Te  Te12  1  0.805718  0.479670  0.519262  1
  Te  Te13  1  0.947144  0.185354  0.563130  1
  Te  Te14  1  0.206946  0.112260  0.465964  1
  Te  Te15  1  0.646499  0.164889  0.524015  1
  Te  Te16  1  0.531919  0.804509  0.381586  1
  Te  Te17  1  0.523484  0.381608  0.534036  1
  Te  Te18  1  0.486494  0.636650  0.521279  1
  Te  Te19  1  0.783287  0.308515  0.436870  1
  Te  Te20  1  0.243937  0.857218  0.478721  1
  Te  Te21  1  0.063032  0.165391  0.387671  1
  Te  Te22  1  0.203849  0.735243  0.373571  1
  Te  Te23  1  0.446461  0.906545  0.596608  1
  Te  Te24  1  0.924712  0.014198  0.480738  1
  Mo  Mo25  1  0.917707  0.181727  0.472978  1
  Mo  Mo26  1  0.812724  0.312141  0.527022  1
  Mo  Mo27  1  0.348417  0.769801  0.546901  1
  Mo  Mo28  1  0.382014  0.724068  0.453099  1
  Br  Br29  1  0.294190  0.251044  0.572878  1
  Br  Br30  1  0.959660  0.547231  0.416241  1
  Br  Br31  1  0.436241  0.242824  0.427122  1
  Br  Br32  1  0.859002  0.843116  0.403347  1
  Br  Br33  1  0.540382  0.480427  0.432778  1
  Br  Br34  1  0.190049  0.013441  0.567222  1
  Br  Br35  1  0.871429  0.650752  0.596653  1
  Br  Br36  1  0.211005  0.514054  0.535901  1
  Br  Br37  1  0.935016  0.293125  0.668001  1
  Br  Br38  1  0.519425  0.979814  0.464099  1
  Br  Br39  1  0.770770  0.946638  0.583759  1
  Br  Br40  1  0.795415  0.200744  0.331999  1
