# generated using pymatgen
data_Ti(FeSe2)2
_symmetry_space_group_name_H-M   'P 1'
_cell_length_a   3.87399763
_cell_length_b   6.05980883
_cell_length_c   23.23257400
_cell_angle_alpha   90.00000000
_cell_angle_beta   90.00000000
_cell_angle_gamma   78.38646781
_symmetry_Int_Tables_number   1
_chemical_formula_structural   Ti(FeSe2)2
_chemical_formula_sum   'Ti1 Fe2 Se4'
_cell_volume   534.23500200
_cell_formula_units_Z   1
loop_
 _symmetry_equiv_pos_site_id
 _symmetry_equiv_pos_as_xyz
  1  'x, y, z'
loop_
 _atom_site_type_symbol
 _atom_site_label
 _atom_site_symmetry_multiplicity
 _atom_site_fract_x
 _atom_site_fract_y
 _atom_site_fract_z
 _atom_site_occupancy
  Ti  Ti1  1  0.587533  0.052146  0.500043  1
  Fe  Fe2  1  0.188932  0.744760  0.508702  1
  Fe  Fe3  1  0.990108  0.357021  0.491272  1
  Se  Se4  1  0.439693  0.474782  0.441565  1
  Se  Se5  1  0.095376  0.004109  0.428252  1
  Se  Se6  1  0.739191  0.627399  0.558265  1
  Se  Se7  1  0.079420  0.097776  0.571901  1
