# generated using pymatgen
data_AlBMo
_symmetry_space_group_name_H-M   'P 1'
_cell_length_a   3.04493741
_cell_length_b   3.13198054
_cell_length_c   25.56928600
_cell_angle_alpha   90.00000000
_cell_angle_beta   90.00000000
_cell_angle_gamma   90.00000000
_symmetry_Int_Tables_number   1
_chemical_formula_structural   AlBMo
_chemical_formula_sum   'Al2 B2 Mo2'
_cell_volume   243.84621893
_cell_formula_units_Z   2
loop_
 _symmetry_equiv_pos_site_id
 _symmetry_equiv_pos_as_xyz
  1  'x, y, z'
loop_
 _atom_site_type_symbol
 _atom_site_label
 _atom_site_symmetry_multiplicity
 _atom_site_fract_x
 _atom_site_fract_y
 _atom_site_fract_z
 _atom_site_occupancy
  Al  Al1  1  0.750000  -0.000000  0.387587  1
  Al  Al2  1  0.250000  -0.000000  0.612413  1
  B  B3  1  0.250000  0.000000  0.518803  1
  B  B4  1  0.750000  0.000000  0.481197  1
  Mo  Mo5  1  0.250000  0.500000  0.450457  1
  Mo  Mo6  1  0.750000  0.500000  0.549543  1
