# generated using pymatgen
data_TeO2
_symmetry_space_group_name_H-M   'P 1'
_cell_length_a   5.18443979
_cell_length_b   5.73562376
_cell_length_c   23.68004671
_cell_angle_alpha   92.21967398
_cell_angle_beta   90.00000000
_cell_angle_gamma   90.00000000
_symmetry_Int_Tables_number   1
_chemical_formula_structural   TeO2
_chemical_formula_sum   'Te4 O8'
_cell_volume   703.62143426
_cell_formula_units_Z   4
loop_
 _symmetry_equiv_pos_site_id
 _symmetry_equiv_pos_as_xyz
  1  'x, y, z'
loop_
 _atom_site_type_symbol
 _atom_site_label
 _atom_site_symmetry_multiplicity
 _atom_site_fract_x
 _atom_site_fract_y
 _atom_site_fract_z
 _atom_site_occupancy
  Te  Te1  1  0.521488  0.620796  0.438857  1
  Te  Te2  1  0.021488  0.879204  0.561143  1
  Te  Te3  1  0.478512  0.379204  0.561143  1
  Te  Te4  1  0.978512  0.120796  0.438857  1
  O  O5  1  0.692629  0.919114  0.414449  1
  O  O6  1  0.192629  0.580886  0.585551  1
  O  O7  1  0.307371  0.080886  0.585551  1
  O  O8  1  0.807371  0.419114  0.414449  1
  O  O9  1  0.648563  0.667840  0.515183  1
  O  O10  1  0.148563  0.832160  0.484817  1
  O  O11  1  0.351437  0.332160  0.484817  1
  O  O12  1  0.851437  0.167840  0.515183  1
