# generated using pymatgen
data_HfTaNO3
_symmetry_space_group_name_H-M   'P 1'
_cell_length_a   3.23076605
_cell_length_b   3.87456007
_cell_length_c   24.57292000
_cell_angle_alpha   90.00000000
_cell_angle_beta   90.00000000
_cell_angle_gamma   90.00000000
_symmetry_Int_Tables_number   1
_chemical_formula_structural   HfTaNO3
_chemical_formula_sum   'Hf1 Ta1 N1 O3'
_cell_volume   307.59882752
_cell_formula_units_Z   1
loop_
 _symmetry_equiv_pos_site_id
 _symmetry_equiv_pos_as_xyz
  1  'x, y, z'
loop_
 _atom_site_type_symbol
 _atom_site_label
 _atom_site_symmetry_multiplicity
 _atom_site_fract_x
 _atom_site_fract_y
 _atom_site_fract_z
 _atom_site_occupancy
  Hf  Hf1  1  0.500000  0.000000  0.548329  1
  Ta  Ta2  1  -0.000000  0.500000  0.453143  1
  N  N3  1  0.000000  -0.000000  0.477530  1
  O  O4  1  0.500000  0.500000  0.409402  1
  O  O5  1  0.000000  -0.000000  0.593357  1
  O  O6  1  0.500000  0.500000  0.518240  1
