# generated using pymatgen
data_Ag2CN2
_symmetry_space_group_name_H-M   'P 1'
_cell_length_a   6.01457639
_cell_length_b   6.54089149
_cell_length_c   25.77487900
_cell_angle_alpha   90.00000000
_cell_angle_beta   90.00000000
_cell_angle_gamma   90.00000000
_symmetry_Int_Tables_number   1
_chemical_formula_structural   Ag2CN2
_chemical_formula_sum   'Ag8 C4 N8'
_cell_volume   1014.00156384
_cell_formula_units_Z   4
loop_
 _symmetry_equiv_pos_site_id
 _symmetry_equiv_pos_as_xyz
  1  'x, y, z'
loop_
 _atom_site_type_symbol
 _atom_site_label
 _atom_site_symmetry_multiplicity
 _atom_site_fract_x
 _atom_site_fract_y
 _atom_site_fract_z
 _atom_site_occupancy
  Ag  Ag1  1  0.691032  0.181015  0.587167  1
  Ag  Ag2  1  0.308968  0.673711  0.412834  1
  Ag  Ag3  1  -0.000000  0.927363  0.500000  1
  Ag  Ag4  1  0.808968  0.681015  0.587167  1
  Ag  Ag5  1  -0.000000  0.427363  0.500000  1
  Ag  Ag6  1  0.191032  0.173711  0.412834  1
  Ag  Ag7  1  0.500000  0.927363  0.500000  1
  Ag  Ag8  1  0.500000  0.427363  0.500000  1
  C  C9  1  0.306406  0.681335  0.583354  1
  C  C10  1  0.193594  0.181335  0.583354  1
  C  C11  1  0.806406  0.673392  0.416646  1
  C  C12  1  0.693594  0.173392  0.416646  1
  N  N13  1  0.981307  0.676374  0.445222  1
  N  N14  1  0.357932  0.184716  0.609242  1
  N  N15  1  0.857932  0.170010  0.390758  1
  N  N16  1  0.481307  0.678352  0.554778  1
  N  N17  1  0.518693  0.176374  0.445222  1
  N  N18  1  0.642068  0.670010  0.390758  1
  N  N19  1  0.142068  0.684716  0.609242  1
  N  N20  1  0.018693  0.178352  0.554778  1
