# generated using pymatgen
data_LiTl
_symmetry_space_group_name_H-M   'P 1'
_cell_length_a   5.09756312
_cell_length_b   5.09699918
_cell_length_c   25.76730800
_cell_angle_alpha   90.00000000
_cell_angle_beta   90.00000000
_cell_angle_gamma   120.00366009
_symmetry_Int_Tables_number   1
_chemical_formula_structural   LiTl
_chemical_formula_sum   'Li2 Tl2'
_cell_volume   579.77680567
_cell_formula_units_Z   2
loop_
 _symmetry_equiv_pos_site_id
 _symmetry_equiv_pos_as_xyz
  1  'x, y, z'
loop_
 _atom_site_type_symbol
 _atom_site_label
 _atom_site_symmetry_multiplicity
 _atom_site_fract_x
 _atom_site_fract_y
 _atom_site_fract_z
 _atom_site_occupancy
  Li  Li1  1  0.333307  0.666614  0.396234  1
  Li  Li2  1  0.333307  0.666614  0.603766  1
  Tl  Tl3  1  -0.000046  -0.000092  0.500000  1
  Tl  Tl4  1  0.333214  0.666428  0.500000  1
