# generated using pymatgen
data_BiO2
_symmetry_space_group_name_H-M   'P 1'
_cell_length_a   6.19006525
_cell_length_b   6.98192674
_cell_length_c   22.30103400
_cell_angle_alpha   90.00000000
_cell_angle_beta   90.00000000
_cell_angle_gamma   90.00269517
_symmetry_Int_Tables_number   1
_chemical_formula_structural   BiO2
_chemical_formula_sum   'Bi4 O8'
_cell_volume   963.81906819
_cell_formula_units_Z   4
loop_
 _symmetry_equiv_pos_site_id
 _symmetry_equiv_pos_as_xyz
  1  'x, y, z'
loop_
 _atom_site_type_symbol
 _atom_site_label
 _atom_site_symmetry_multiplicity
 _atom_site_fract_x
 _atom_site_fract_y
 _atom_site_fract_z
 _atom_site_occupancy
  Bi  Bi1  1  0.508206  0.251838  0.513770  1
  Bi  Bi2  1  0.493923  0.751803  0.486137  1
  Bi  Bi3  1  0.000724  0.501751  0.499987  1
  Bi  Bi4  1  0.000733  0.001781  0.500000  1
  O  O5  1  0.877568  0.251749  0.551929  1
  O  O6  1  0.124198  0.751813  0.448117  1
  O  O7  1  0.171450  0.251770  0.457892  1
  O  O8  1  0.830167  0.751768  0.542146  1
  O  O9  1  0.696339  0.474565  0.456928  1
  O  O10  1  0.305725  0.974469  0.543047  1
  O  O11  1  0.305614  0.529137  0.543086  1
  O  O12  1  0.696208  0.028958  0.456962  1
