# generated using pymatgen
data_V(WO4)2
_symmetry_space_group_name_H-M   'P 1'
_cell_length_a   4.87923440
_cell_length_b   5.23169860
_cell_length_c   25.38474000
_cell_angle_alpha   90.00000000
_cell_angle_beta   90.00000000
_cell_angle_gamma   104.41592787
_symmetry_Int_Tables_number   1
_chemical_formula_structural   V(WO4)2
_chemical_formula_sum   'V1 W2 O8'
_cell_volume   627.58566642
_cell_formula_units_Z   1
loop_
 _symmetry_equiv_pos_site_id
 _symmetry_equiv_pos_as_xyz
  1  'x, y, z'
loop_
 _atom_site_type_symbol
 _atom_site_label
 _atom_site_symmetry_multiplicity
 _atom_site_fract_x
 _atom_site_fract_y
 _atom_site_fract_z
 _atom_site_occupancy
  V  V1  1  0.060356  0.005259  0.500011  1
  W  W2  1  0.339333  0.564883  0.545329  1
  W  W3  1  0.781463  0.445621  0.454701  1
  O  O4  1  0.463041  0.488391  0.605418  1
  O  O5  1  0.214268  0.869905  0.559420  1
  O  O6  1  0.424488  0.278132  0.492806  1
  O  O7  1  0.141623  0.699283  0.462270  1
  O  O8  1  0.906424  0.140601  0.440588  1
  O  O9  1  0.657639  0.521940  0.394536  1
  O  O10  1  0.696360  0.732509  0.507192  1
  O  O11  1  0.979182  0.311303  0.537729  1
