# generated using pymatgen
data_HAuO2
_symmetry_space_group_name_H-M   'P 1'
_cell_length_a   4.06125098
_cell_length_b   5.41413331
_cell_length_c   23.35774300
_cell_angle_alpha   89.58652240
_cell_angle_beta   88.83636980
_cell_angle_gamma   87.99562459
_symmetry_Int_Tables_number   1
_chemical_formula_structural   HAuO2
_chemical_formula_sum   'H2 Au2 O4'
_cell_volume   513.16268715
_cell_formula_units_Z   2
loop_
 _symmetry_equiv_pos_site_id
 _symmetry_equiv_pos_as_xyz
  1  'x, y, z'
loop_
 _atom_site_type_symbol
 _atom_site_label
 _atom_site_symmetry_multiplicity
 _atom_site_fract_x
 _atom_site_fract_y
 _atom_site_fract_z
 _atom_site_occupancy
  H  H1  1  0.221839  0.262857  0.579395  1
  H  H2  1  0.778161  0.737143  0.420605  1
  Au  Au3  1  0.500000  0.500000  0.500000  1
  Au  Au4  1  0.000000  0.000000  0.500000  1
  O  O5  1  0.864067  0.684784  0.457995  1
  O  O6  1  0.348530  0.805374  0.542963  1
  O  O7  1  0.135933  0.315216  0.542005  1
  O  O8  1  0.651470  0.194626  0.457037  1
