# generated using pymatgen
data_TaNiTe5
_symmetry_space_group_name_H-M   'P 1'
_cell_length_a   3.73602115
_cell_length_b   15.19287468
_cell_length_c   24.59942900
_cell_angle_alpha   90.00000000
_cell_angle_beta   90.00000000
_cell_angle_gamma   90.00000000
_symmetry_Int_Tables_number   1
_chemical_formula_structural   TaNiTe5
_chemical_formula_sum   'Ta2 Ni2 Te10'
_cell_volume   1396.28575742
_cell_formula_units_Z   2
loop_
 _symmetry_equiv_pos_site_id
 _symmetry_equiv_pos_as_xyz
  1  'x, y, z'
loop_
 _atom_site_type_symbol
 _atom_site_label
 _atom_site_symmetry_multiplicity
 _atom_site_fract_x
 _atom_site_fract_y
 _atom_site_fract_z
 _atom_site_occupancy
  Ta  Ta1  1  0.000000  0.750000  0.495396  1
  Ta  Ta2  1  0.000000  0.250000  0.504604  1
  Ni  Ni3  1  0.500000  0.500000  0.500000  1
  Ni  Ni4  1  0.500000  0.000000  0.500000  1
  Te  Te5  1  0.000000  0.425233  0.556845  1
  Te  Te6  1  0.500000  0.354259  0.443498  1
  Te  Te7  1  -0.000000  0.574767  0.443155  1
  Te  Te8  1  0.000000  0.925233  0.443155  1
  Te  Te9  1  -0.000000  0.074767  0.556845  1
  Te  Te10  1  0.500000  0.750000  0.407068  1
  Te  Te11  1  0.500000  0.854259  0.556502  1
  Te  Te12  1  0.500000  0.250000  0.592931  1
  Te  Te13  1  0.500000  0.145741  0.443498  1
  Te  Te14  1  0.500000  0.645741  0.556502  1
