# generated using pymatgen
data_ZnGeO3
_symmetry_space_group_name_H-M   'P 1'
_cell_length_a   5.08302106
_cell_length_b   5.08302037
_cell_length_c   23.70747100
_cell_angle_alpha   90.00000000
_cell_angle_beta   90.00000000
_cell_angle_gamma   59.99999544
_symmetry_Int_Tables_number   1
_chemical_formula_structural   ZnGeO3
_chemical_formula_sum   'Zn2 Ge2 O6'
_cell_volume   530.46849921
_cell_formula_units_Z   2
loop_
 _symmetry_equiv_pos_site_id
 _symmetry_equiv_pos_as_xyz
  1  'x, y, z'
loop_
 _atom_site_type_symbol
 _atom_site_label
 _atom_site_symmetry_multiplicity
 _atom_site_fract_x
 _atom_site_fract_y
 _atom_site_fract_z
 _atom_site_occupancy
  Zn  Zn1  1  0.000000  0.000000  0.560629  1
  Zn  Zn2  1  0.000000  0.000000  0.439371  1
  Ge  Ge3  1  0.666667  0.666667  0.499835  1
  Ge  Ge4  1  0.333333  0.333333  0.500165  1
  O  O5  1  0.369883  0.630438  0.544734  1
  O  O6  1  0.999681  0.369883  0.544734  1
  O  O7  1  0.630438  0.999681  0.544734  1
  O  O8  1  0.630117  0.369562  0.455266  1
  O  O9  1  0.369562  0.000319  0.455266  1
  O  O10  1  0.000319  0.630117  0.455266  1
