# generated using pymatgen
data_CaLaI5
_symmetry_space_group_name_H-M   'P 1'
_cell_length_a   4.45328242
_cell_length_b   18.11849053
_cell_length_c   24.67767500
_cell_angle_alpha   90.00000000
_cell_angle_beta   90.00000000
_cell_angle_gamma   90.00000000
_symmetry_Int_Tables_number   1
_chemical_formula_structural   CaLaI5
_chemical_formula_sum   'Ca2 La2 I10'
_cell_volume   1991.16152544
_cell_formula_units_Z   2
loop_
 _symmetry_equiv_pos_site_id
 _symmetry_equiv_pos_as_xyz
  1  'x, y, z'
loop_
 _atom_site_type_symbol
 _atom_site_label
 _atom_site_symmetry_multiplicity
 _atom_site_fract_x
 _atom_site_fract_y
 _atom_site_fract_z
 _atom_site_occupancy
  Ca  Ca1  1  0.500000  0.092021  0.506653  1
  Ca  Ca2  1  0.500000  0.592021  0.493347  1
  La  La3  1  -0.000000  0.342586  0.505002  1
  La  La4  1  0.000000  0.842586  0.494998  1
  I  I5  1  -0.000000  0.018445  0.438005  1
  I  I6  1  0.000000  0.169675  0.572187  1
  I  I7  1  0.500000  0.237202  0.438282  1
  I  I8  1  0.500000  0.345855  0.595846  1
  I  I9  1  0.500000  0.441408  0.431872  1
  I  I10  1  -0.000000  0.518445  0.561995  1
  I  I11  1  0.000000  0.669675  0.427813  1
  I  I12  1  0.500000  0.737202  0.561718  1
  I  I13  1  0.500000  0.845855  0.404154  1
  I  I14  1  0.500000  0.941408  0.568128  1
