# generated using pymatgen
data_YbClO
_symmetry_space_group_name_H-M   'P 1'
_cell_length_a   3.82926623
_cell_length_b   3.82926661
_cell_length_c   26.37345107
_cell_angle_alpha   90.00000000
_cell_angle_beta   90.00000000
_cell_angle_gamma   60.00000341
_symmetry_Int_Tables_number   1
_chemical_formula_structural   YbClO
_chemical_formula_sum   'Yb2 Cl2 O2'
_cell_volume   334.91050986
_cell_formula_units_Z   2
loop_
 _symmetry_equiv_pos_site_id
 _symmetry_equiv_pos_as_xyz
  1  'x, y, z'
loop_
 _atom_site_type_symbol
 _atom_site_label
 _atom_site_symmetry_multiplicity
 _atom_site_fract_x
 _atom_site_fract_y
 _atom_site_fract_z
 _atom_site_occupancy
  Yb  Yb1  1  0.333333  0.333333  0.443739  1
  Yb  Yb2  1  0.666667  0.666667  0.556237  1
  Cl  Cl3  1  -0.000000  -0.000000  0.381391  1
  Cl  Cl4  1  -0.000000  -0.000000  0.618659  1
  O  O5  1  0.333333  0.333333  0.530434  1
  O  O6  1  0.666667  0.666667  0.469540  1
