# generated using pymatgen
data_V2Cu2O7
_symmetry_space_group_name_H-M   'P 1'
_cell_length_a   6.71084844
_cell_length_b   8.08512394
_cell_length_c   23.59647800
_cell_angle_alpha   90.00000000
_cell_angle_beta   90.00000000
_cell_angle_gamma   113.80973477
_symmetry_Int_Tables_number   1
_chemical_formula_structural   V2Cu2O7
_chemical_formula_sum   'V4 Cu4 O14'
_cell_volume   1171.33385565
_cell_formula_units_Z   2
loop_
 _symmetry_equiv_pos_site_id
 _symmetry_equiv_pos_as_xyz
  1  'x, y, z'
loop_
 _atom_site_type_symbol
 _atom_site_label
 _atom_site_symmetry_multiplicity
 _atom_site_fract_x
 _atom_site_fract_y
 _atom_site_fract_z
 _atom_site_occupancy
  V  V1  1  0.438387  0.819190  0.521696  1
  V  V2  1  0.938387  0.819190  0.478304  1
  V  V3  1  0.061613  0.180810  0.521696  1
  V  V4  1  0.561613  0.180810  0.478304  1
  Cu  Cu5  1  0.030836  0.543638  0.560645  1
  Cu  Cu6  1  0.530836  0.543638  0.439355  1
  Cu  Cu7  1  0.469165  0.456363  0.560645  1
  Cu  Cu8  1  0.969165  0.456363  0.439355  1
  O  O9  1  0.642139  0.774382  0.474539  1
  O  O10  1  0.857862  0.225618  0.474539  1
  O  O11  1  0.432522  0.972525  0.449739  1
  O  O12  1  0.932522  0.972525  0.550261  1
  O  O13  1  0.923424  0.665890  0.424312  1
  O  O14  1  0.067478  0.027475  0.449739  1
  O  O15  1  0.567478  0.027475  0.550261  1
  O  O16  1  0.142139  0.774383  0.525461  1
  O  O17  1  0.357862  0.225618  0.525461  1
  O  O18  1  0.250000  0.500000  0.464502  1
  O  O19  1  0.423424  0.665890  0.575688  1
  O  O20  1  0.576576  0.334110  0.424312  1
  O  O21  1  0.750000  0.500000  0.535498  1
  O  O22  1  0.076576  0.334110  0.575688  1
