# generated using pymatgen
data_TiCuF6
_symmetry_space_group_name_H-M   'P 1'
_cell_length_a   4.99129124
_cell_length_b   5.28507660
_cell_length_c   23.52070200
_cell_angle_alpha   90.00000000
_cell_angle_beta   90.00000000
_cell_angle_gamma   89.67905103
_symmetry_Int_Tables_number   1
_chemical_formula_structural   TiCuF6
_chemical_formula_sum   'Ti1 Cu1 F6'
_cell_volume   620.45125040
_cell_formula_units_Z   1
loop_
 _symmetry_equiv_pos_site_id
 _symmetry_equiv_pos_as_xyz
  1  'x, y, z'
loop_
 _atom_site_type_symbol
 _atom_site_label
 _atom_site_symmetry_multiplicity
 _atom_site_fract_x
 _atom_site_fract_y
 _atom_site_fract_z
 _atom_site_occupancy
  Ti  Ti1  1  0.500000  0.500000  0.500000  1
  Cu  Cu2  1  0.000000  -0.000000  0.500000  1
  F  F3  1  0.191145  0.295057  0.480989  1
  F  F4  1  0.808855  0.704943  0.519011  1
  F  F5  1  0.302500  0.803398  0.479118  1
  F  F6  1  0.697500  0.196602  0.520882  1
  F  F7  1  0.618564  0.473631  0.427511  1
  F  F8  1  0.381436  0.526369  0.572489  1
