# generated using pymatgen
data_GaHO2
_symmetry_space_group_name_H-M   'P 1'
_cell_length_a   2.92653678
_cell_length_b   5.09474870
_cell_length_c   25.96199831
_cell_angle_alpha   90.00000000
_cell_angle_beta   90.00000000
_cell_angle_gamma   90.00000000
_symmetry_Int_Tables_number   1
_chemical_formula_structural   GaHO2
_chemical_formula_sum   'Ga2 H2 O4'
_cell_volume   387.09260180
_cell_formula_units_Z   2
loop_
 _symmetry_equiv_pos_site_id
 _symmetry_equiv_pos_as_xyz
  1  'x, y, z'
loop_
 _atom_site_type_symbol
 _atom_site_label
 _atom_site_symmetry_multiplicity
 _atom_site_fract_x
 _atom_site_fract_y
 _atom_site_fract_z
 _atom_site_occupancy
  Ga  Ga1  1  0.500000  0.531875  0.466443  1
  Ga  Ga2  1  0.000000  0.031875  0.533557  1
  H  H3  1  0.500000  0.020802  0.617632  1
  H  H4  1  -0.000000  0.520802  0.382368  1
  O  O5  1  -0.000000  0.613189  0.415191  1
  O  O6  1  0.500000  0.113189  0.584809  1
  O  O7  1  -0.000000  0.347434  0.497138  1
  O  O8  1  0.500000  0.847434  0.502862  1
