# generated using pymatgen
data_SbTe
_symmetry_space_group_name_H-M   'P 1'
_cell_length_a   4.34272733
_cell_length_b   4.34272787
_cell_length_c   61.44769700
_cell_angle_alpha   90.00000000
_cell_angle_beta   90.00000000
_cell_angle_gamma   119.99999596
_symmetry_Int_Tables_number   1
_chemical_formula_structural   SbTe
_chemical_formula_sum   'Sb6 Te6'
_cell_volume   1003.60181405
_cell_formula_units_Z   6
loop_
 _symmetry_equiv_pos_site_id
 _symmetry_equiv_pos_as_xyz
  1  'x, y, z'
loop_
 _atom_site_type_symbol
 _atom_site_label
 _atom_site_symmetry_multiplicity
 _atom_site_fract_x
 _atom_site_fract_y
 _atom_site_fract_z
 _atom_site_occupancy
  Sb  Sb1  1  -0.000000  0.000000  0.647286  1
  Sb  Sb2  1  -0.000000  0.000000  0.352714  1
  Sb  Sb3  1  0.333333  0.666667  0.582437  1
  Sb  Sb4  1  0.666667  0.333333  0.417563  1
  Sb  Sb5  1  0.333333  0.666667  0.487278  1
  Sb  Sb6  1  0.666667  0.333333  0.512722  1
  Te  Te7  1  0.333333  0.666667  0.674741  1
  Te  Te8  1  0.666667  0.333333  0.325259  1
  Te  Te9  1  0.333333  0.666667  0.385315  1
  Te  Te10  1  0.666667  0.333333  0.614685  1
  Te  Te11  1  0.000000  0.000000  0.554315  1
  Te  Te12  1  -0.000000  0.000000  0.445685  1
