# generated using pymatgen
data_FeBiO3
_symmetry_space_group_name_H-M   'P 1'
_cell_length_a   5.89115763
_cell_length_b   5.98409457
_cell_length_c   21.06577795
_cell_angle_alpha   90.04682773
_cell_angle_beta   89.92456730
_cell_angle_gamma   118.67666103
_symmetry_Int_Tables_number   1
_chemical_formula_structural   FeBiO3
_chemical_formula_sum   'Fe1 Bi1 O3'
_cell_volume   651.54584924
_cell_formula_units_Z   1
loop_
 _symmetry_equiv_pos_site_id
 _symmetry_equiv_pos_as_xyz
  1  'x, y, z'
loop_
 _atom_site_type_symbol
 _atom_site_label
 _atom_site_symmetry_multiplicity
 _atom_site_fract_x
 _atom_site_fract_y
 _atom_site_fract_z
 _atom_site_occupancy
  Fe  Fe1  1  0.010382  0.000086  0.482368  1
  Bi  Bi2  1  0.355795  0.657983  0.539923  1
  O  O3  1  0.260698  0.330592  0.487023  1
  O  O4  1  0.673064  0.922581  0.487953  1
  O  O5  1  0.079454  0.744936  0.502733  1
