# generated using pymatgen
data_WBr2
_symmetry_space_group_name_H-M   'P 1'
_cell_length_a   11.95636208
_cell_length_b   11.96172625
_cell_length_c   28.79316400
_cell_angle_alpha   90.00000000
_cell_angle_beta   90.00000000
_cell_angle_gamma   90.00000000
_symmetry_Int_Tables_number   1
_chemical_formula_structural   WBr2
_chemical_formula_sum   'W12 Br24'
_cell_volume   4117.96175219
_cell_formula_units_Z   12
loop_
 _symmetry_equiv_pos_site_id
 _symmetry_equiv_pos_as_xyz
  1  'x, y, z'
loop_
 _atom_site_type_symbol
 _atom_site_label
 _atom_site_symmetry_multiplicity
 _atom_site_fract_x
 _atom_site_fract_y
 _atom_site_fract_z
 _atom_site_occupancy
  W  W1  1  0.068915  0.140648  0.500000  1
  W  W2  1  0.431085  0.640648  0.500000  1
  W  W3  1  0.568915  0.359352  0.500000  1
  W  W4  1  0.931085  0.859352  0.500000  1
  W  W5  1  0.859297  0.068886  0.500000  1
  W  W6  1  0.640703  0.568886  0.500000  1
  W  W7  1  0.359297  0.431114  0.500000  1
  W  W8  1  0.140703  0.931114  0.500000  1
  W  W9  1  0.500000  0.500000  0.434511  1
  W  W10  1  0.000000  -0.000000  0.565489  1
  W  W11  1  0.500000  0.500000  0.565489  1
  W  W12  1  0.000000  -0.000000  0.434511  1
  Br  Br13  1  0.649235  0.149312  0.500000  1
  Br  Br14  1  0.850765  0.649312  0.500000  1
  Br  Br15  1  0.149235  0.350688  0.500000  1
  Br  Br16  1  0.350765  0.850688  0.500000  1
  Br  Br17  1  0.500000  0.500000  0.346469  1
  Br  Br18  1  0.000000  -0.000000  0.653531  1
  Br  Br19  1  0.500000  0.500000  0.653531  1
  Br  Br20  1  0.000000  -0.000000  0.346469  1
  Br  Br21  1  0.211403  0.072580  0.564898  1
  Br  Br22  1  0.288597  0.572580  0.435102  1
  Br  Br23  1  0.711403  0.427420  0.435102  1
  Br  Br24  1  0.788597  0.927420  0.564898  1
  Br  Br25  1  0.072625  0.788718  0.435084  1
  Br  Br26  1  0.427375  0.288718  0.564916  1
  Br  Br27  1  0.572625  0.711282  0.564916  1
  Br  Br28  1  0.927375  0.211282  0.435084  1
  Br  Br29  1  0.927375  0.211282  0.564916  1
  Br  Br30  1  0.572625  0.711282  0.435084  1
  Br  Br31  1  0.427375  0.288718  0.435084  1
  Br  Br32  1  0.072625  0.788718  0.564916  1
  Br  Br33  1  0.211403  0.072580  0.435102  1
  Br  Br34  1  0.288597  0.572580  0.564898  1
  Br  Br35  1  0.711403  0.427420  0.564898  1
  Br  Br36  1  0.788597  0.927420  0.435102  1
