# generated using pymatgen
data_LiVF4
_symmetry_space_group_name_H-M   'P 1'
_cell_length_a   3.10670343
_cell_length_b   5.41305231
_cell_length_c   22.06517800
_cell_angle_alpha   90.00000000
_cell_angle_beta   90.00000000
_cell_angle_gamma   90.00000000
_symmetry_Int_Tables_number   1
_chemical_formula_structural   LiVF4
_chemical_formula_sum   'Li1 V1 F4'
_cell_volume   371.06454193
_cell_formula_units_Z   1
loop_
 _symmetry_equiv_pos_site_id
 _symmetry_equiv_pos_as_xyz
  1  'x, y, z'
loop_
 _atom_site_type_symbol
 _atom_site_label
 _atom_site_symmetry_multiplicity
 _atom_site_fract_x
 _atom_site_fract_y
 _atom_site_fract_z
 _atom_site_occupancy
  Li  Li1  1  0.500000  0.303027  0.500000  1
  V  V2  1  0.000000  0.803027  0.500000  1
  F  F3  1  -0.000000  0.487516  0.539499  1
  F  F4  1  0.500000  0.662708  0.452964  1
  F  F5  1  0.500000  0.943346  0.547036  1
  F  F6  1  -0.000000  0.118538  0.460501  1
