# generated using pymatgen
data_HfTe2
_symmetry_space_group_name_H-M   'P 1'
_cell_length_a   3.98484277
_cell_length_b   3.98484314
_cell_length_c   23.55560800
_cell_angle_alpha   90.00000000
_cell_angle_beta   90.00000000
_cell_angle_gamma   120.00000527
_symmetry_Int_Tables_number   1
_chemical_formula_structural   HfTe2
_chemical_formula_sum   'Hf1 Te2'
_cell_volume   323.92714857
_cell_formula_units_Z   1
loop_
 _symmetry_equiv_pos_site_id
 _symmetry_equiv_pos_as_xyz
  1  'x, y, z'
loop_
 _atom_site_type_symbol
 _atom_site_label
 _atom_site_symmetry_multiplicity
 _atom_site_fract_x
 _atom_site_fract_y
 _atom_site_fract_z
 _atom_site_occupancy
  Hf  Hf1  1  -0.000000  0.000000  0.500000  1
  Te  Te2  1  0.333333  0.666667  0.425409  1
  Te  Te3  1  0.666667  0.333333  0.574591  1
