# generated using pymatgen
data_SbOF
_symmetry_space_group_name_H-M   'P 1'
_cell_length_a   3.52984129
_cell_length_b   4.03252145
_cell_length_c   24.05952700
_cell_angle_alpha   90.00000000
_cell_angle_beta   90.00000000
_cell_angle_gamma   90.00000000
_symmetry_Int_Tables_number   1
_chemical_formula_structural   SbOF
_chemical_formula_sum   'Sb2 O2 F2'
_cell_volume   342.46717409
_cell_formula_units_Z   2
loop_
 _symmetry_equiv_pos_site_id
 _symmetry_equiv_pos_as_xyz
  1  'x, y, z'
loop_
 _atom_site_type_symbol
 _atom_site_label
 _atom_site_symmetry_multiplicity
 _atom_site_fract_x
 _atom_site_fract_y
 _atom_site_fract_z
 _atom_site_occupancy
  Sb  Sb1  1  -0.000000  0.358340  0.447566  1
  Sb  Sb2  1  0.500000  0.858340  0.552434  1
  O  O3  1  0.500000  0.459450  0.500515  1
  O  O4  1  -0.000000  0.959450  0.499485  1
  F  F5  1  0.500000  0.050397  0.413742  1
  F  F6  1  -0.000000  0.550397  0.586258  1
