# generated using pymatgen
data_BiSe
_symmetry_space_group_name_H-M   'P 1'
_cell_length_a   4.15947401
_cell_length_b   4.15947403
_cell_length_c   23.97315279
_cell_angle_alpha   90.19797596
_cell_angle_beta   90.19797596
_cell_angle_gamma   89.97617151
_symmetry_Int_Tables_number   1
_chemical_formula_structural   BiSe
_chemical_formula_sum   'Bi2 Se2'
_cell_volume   414.75990314
_cell_formula_units_Z   2
loop_
 _symmetry_equiv_pos_site_id
 _symmetry_equiv_pos_as_xyz
  1  'x, y, z'
loop_
 _atom_site_type_symbol
 _atom_site_label
 _atom_site_symmetry_multiplicity
 _atom_site_fract_x
 _atom_site_fract_y
 _atom_site_fract_z
 _atom_site_occupancy
  Bi  Bi1  1  0.003855  0.003855  0.425445  1
  Bi  Bi2  1  0.497210  0.497210  0.574450  1
  Se  Se3  1  0.004072  0.004072  0.553738  1
  Se  Se4  1  0.496123  0.496123  0.446367  1
