# generated using pymatgen
data_CuCO3
_symmetry_space_group_name_H-M   'P 1'
_cell_length_a   6.52941045
_cell_length_b   8.37013291
_cell_length_c   23.31739771
_cell_angle_alpha   89.60495225
_cell_angle_beta   90.00000000
_cell_angle_gamma   90.00000000
_symmetry_Int_Tables_number   1
_chemical_formula_structural   CuCO3
_chemical_formula_sum   'Cu4 C4 O12'
_cell_volume   1274.31290565
_cell_formula_units_Z   4
loop_
 _symmetry_equiv_pos_site_id
 _symmetry_equiv_pos_as_xyz
  1  'x, y, z'
loop_
 _atom_site_type_symbol
 _atom_site_label
 _atom_site_symmetry_multiplicity
 _atom_site_fract_x
 _atom_site_fract_y
 _atom_site_fract_z
 _atom_site_occupancy
  Cu  Cu1  1  0.002826  0.115204  0.549300  1
  Cu  Cu2  1  0.502826  0.384796  0.450700  1
  Cu  Cu3  1  0.497174  0.615204  0.549300  1
  Cu  Cu4  1  0.997174  0.884796  0.450700  1
  C  C5  1  0.669535  0.305423  0.552001  1
  C  C6  1  0.169535  0.194577  0.447999  1
  C  C7  1  0.830465  0.805423  0.552001  1
  C  C8  1  0.330465  0.694577  0.447999  1
  O  O9  1  0.814960  0.259435  0.584876  1
  O  O10  1  0.156415  0.249453  0.499837  1
  O  O11  1  0.656415  0.250547  0.500163  1
  O  O12  1  0.465896  0.595174  0.428531  1
  O  O13  1  0.314960  0.240565  0.415124  1
  O  O14  1  0.965896  0.904826  0.571469  1
  O  O15  1  0.034104  0.095174  0.428531  1
  O  O16  1  0.685040  0.759435  0.584876  1
  O  O17  1  0.534104  0.404826  0.571469  1
  O  O18  1  0.343585  0.749453  0.499837  1
  O  O19  1  0.843585  0.750547  0.500163  1
  O  O20  1  0.185040  0.740565  0.415124  1
