# generated using pymatgen
data_LiNi(PS3)2
_symmetry_space_group_name_H-M   'P 1'
_cell_length_a   5.80405081
_cell_length_b   5.87403125
_cell_length_c   23.13628328
_cell_angle_alpha   90.25917100
_cell_angle_beta   90.52459727
_cell_angle_gamma   60.39331999
_symmetry_Int_Tables_number   1
_chemical_formula_structural   LiNi(PS3)2
_chemical_formula_sum   'Li1 Ni1 P2 S6'
_cell_volume   685.77418667
_cell_formula_units_Z   1
loop_
 _symmetry_equiv_pos_site_id
 _symmetry_equiv_pos_as_xyz
  1  'x, y, z'
loop_
 _atom_site_type_symbol
 _atom_site_label
 _atom_site_symmetry_multiplicity
 _atom_site_fract_x
 _atom_site_fract_y
 _atom_site_fract_z
 _atom_site_occupancy
  Li  Li1  1  0.666449  0.667101  0.500000  1
  Ni  Ni2  1  0.336716  0.326567  0.500000  1
  P  P3  1  0.998163  0.997607  0.547162  1
  P  P4  1  0.004230  0.997607  0.452838  1
  S  S5  1  0.020974  0.652058  0.568851  1
  S  S6  1  0.642051  0.328053  0.565819  1
  S  S7  1  0.029896  0.328053  0.434181  1
  S  S8  1  0.326969  0.652058  0.431149  1
  S  S9  1  0.649979  0.025449  0.430799  1
  S  S10  1  0.324572  0.025449  0.569201  1
