# generated using pymatgen
data_LiVF4
_symmetry_space_group_name_H-M   'P 1'
_cell_length_a   6.18008862
_cell_length_b   7.00184648
_cell_length_c   22.63063700
_cell_angle_alpha   90.00000000
_cell_angle_beta   90.00000000
_cell_angle_gamma   90.00000000
_symmetry_Int_Tables_number   1
_chemical_formula_structural   LiVF4
_chemical_formula_sum   'Li2 V2 F8'
_cell_volume   979.27364279
_cell_formula_units_Z   2
loop_
 _symmetry_equiv_pos_site_id
 _symmetry_equiv_pos_as_xyz
  1  'x, y, z'
loop_
 _atom_site_type_symbol
 _atom_site_label
 _atom_site_symmetry_multiplicity
 _atom_site_fract_x
 _atom_site_fract_y
 _atom_site_fract_z
 _atom_site_occupancy
  Li  Li1  1  0.250000  0.500000  0.540240  1
  Li  Li2  1  0.750000  0.500000  0.459760  1
  V  V3  1  0.250000  0.000000  0.500550  1
  V  V4  1  0.750000  -0.000000  0.499450  1
  F  F5  1  0.250000  0.274803  0.506224  1
  F  F6  1  0.750000  0.274803  0.493776  1
  F  F7  1  0.504391  -0.000000  0.556622  1
  F  F8  1  0.995609  0.000000  0.556622  1
  F  F9  1  0.495609  0.000000  0.443378  1
  F  F10  1  0.004391  -0.000000  0.443378  1
  F  F11  1  0.250000  0.725197  0.506224  1
  F  F12  1  0.750000  0.725197  0.493776  1
