# generated using pymatgen
data_RbReSO3
_symmetry_space_group_name_H-M   'P 1'
_cell_length_a   7.67444252
_cell_length_b   8.17318210
_cell_length_c   27.61760700
_cell_angle_alpha   90.00000000
_cell_angle_beta   90.00000000
_cell_angle_gamma   90.00000000
_symmetry_Int_Tables_number   1
_chemical_formula_structural   RbReSO3
_chemical_formula_sum   'Rb4 Re4 S4 O12'
_cell_volume   1732.30380032
_cell_formula_units_Z   4
loop_
 _symmetry_equiv_pos_site_id
 _symmetry_equiv_pos_as_xyz
  1  'x, y, z'
loop_
 _atom_site_type_symbol
 _atom_site_label
 _atom_site_symmetry_multiplicity
 _atom_site_fract_x
 _atom_site_fract_y
 _atom_site_fract_z
 _atom_site_occupancy
  Rb  Rb1  1  0.637991  0.602589  0.555316  1
  Rb  Rb2  1  0.862009  0.102589  0.555316  1
  Rb  Rb3  1  0.362009  0.362486  0.444684  1
  Rb  Rb4  1  0.137991  0.862486  0.444684  1
  Re  Re5  1  0.626458  0.868248  0.430156  1
  Re  Re6  1  0.373542  0.096826  0.569844  1
  Re  Re7  1  0.873542  0.368248  0.430156  1
  Re  Re8  1  0.126458  0.596826  0.569844  1
  S  S9  1  0.735084  0.366941  0.362664  1
  S  S10  1  0.264916  0.598134  0.637336  1
  S  S11  1  0.235084  0.098134  0.637336  1
  S  S12  1  0.764916  0.866941  0.362664  1
  O  O13  1  0.496924  0.690925  0.434864  1
  O  O14  1  0.722237  0.373436  0.478271  1
  O  O15  1  0.514107  0.926446  0.567292  1
  O  O16  1  0.014107  0.538628  0.432708  1
  O  O17  1  0.277763  0.591638  0.521729  1
  O  O18  1  0.985893  0.426446  0.567292  1
  O  O19  1  0.222237  0.091638  0.521729  1
  O  O20  1  0.996924  0.774149  0.565136  1
  O  O21  1  0.485893  0.038628  0.432708  1
  O  O22  1  0.503076  0.274149  0.565136  1
  O  O23  1  0.777763  0.873436  0.478271  1
  O  O24  1  0.003076  0.190925  0.434864  1
