# generated using pymatgen
data_TlCu3S2
_symmetry_space_group_name_H-M   'P 1'
_cell_length_a   3.83390337
_cell_length_b   7.42035197
_cell_length_c   27.03024000
_cell_angle_alpha   90.00000000
_cell_angle_beta   90.00000000
_cell_angle_gamma   104.97141416
_symmetry_Int_Tables_number   1
_chemical_formula_structural   TlCu3S2
_chemical_formula_sum   'Tl2 Cu6 S4'
_cell_volume   742.87774620
_cell_formula_units_Z   2
loop_
 _symmetry_equiv_pos_site_id
 _symmetry_equiv_pos_as_xyz
  1  'x, y, z'
loop_
 _atom_site_type_symbol
 _atom_site_label
 _atom_site_symmetry_multiplicity
 _atom_site_fract_x
 _atom_site_fract_y
 _atom_site_fract_z
 _atom_site_occupancy
  Tl  Tl1  1  0.768360  0.536721  0.378395  1
  Tl  Tl2  1  0.231640  0.463279  0.621605  1
  Cu  Cu3  1  0.443032  0.886062  0.540774  1
  Cu  Cu4  1  0.294423  0.588845  0.476079  1
  Cu  Cu5  1  0.081221  0.162442  0.528685  1
  Cu  Cu6  1  0.918779  0.837558  0.471315  1
  Cu  Cu7  1  0.705577  0.411155  0.523921  1
  Cu  Cu8  1  0.556968  0.113938  0.459226  1
  S  S9  1  0.417051  0.834103  0.419170  1
  S  S10  1  0.582949  0.165897  0.580830  1
  S  S11  1  0.852643  0.705286  0.551344  1
  S  S12  1  0.147357  0.294714  0.448656  1
