# generated using pymatgen
data_TiZn(GeO3)2
_symmetry_space_group_name_H-M   'P 1'
_cell_length_a   5.33031274
_cell_length_b   8.45831559
_cell_length_c   29.94586300
_cell_angle_alpha   90.00000000
_cell_angle_beta   90.00000000
_cell_angle_gamma   90.00000000
_symmetry_Int_Tables_number   1
_chemical_formula_structural   TiZn(GeO3)2
_chemical_formula_sum   'Ti4 Zn4 Ge8 O24'
_cell_volume   1350.12322850
_cell_formula_units_Z   4
loop_
 _symmetry_equiv_pos_site_id
 _symmetry_equiv_pos_as_xyz
  1  'x, y, z'
loop_
 _atom_site_type_symbol
 _atom_site_label
 _atom_site_symmetry_multiplicity
 _atom_site_fract_x
 _atom_site_fract_y
 _atom_site_fract_z
 _atom_site_occupancy
  Ti  Ti1  1  0.580822  0.657514  0.416509  1
  Ti  Ti2  1  0.919178  0.157514  0.583491  1
  Ti  Ti3  1  0.419178  0.342486  0.583491  1
  Ti  Ti4  1  0.080822  0.842486  0.416509  1
  Zn  Zn5  1  0.083268  0.446515  0.401264  1
  Zn  Zn6  1  0.416732  0.946515  0.598736  1
  Zn  Zn7  1  0.916732  0.553485  0.598736  1
  Zn  Zn8  1  0.583268  0.053485  0.401264  1
  Ge  Ge9  1  0.560281  0.365861  0.334200  1
  Ge  Ge10  1  0.939719  0.865861  0.665800  1
  Ge  Ge11  1  0.439719  0.634139  0.665800  1
  Ge  Ge12  1  0.060281  0.134139  0.334200  1
  Ge  Ge13  1  0.725828  0.348464  0.486806  1
  Ge  Ge14  1  0.774172  0.848464  0.513194  1
  Ge  Ge15  1  0.274172  0.651536  0.513194  1
  Ge  Ge16  1  0.225828  0.151536  0.486806  1
  O  O17  1  0.019600  0.293242  0.459863  1
  O  O18  1  0.480400  0.793242  0.540137  1
  O  O19  1  0.980400  0.706758  0.540137  1
  O  O20  1  0.519600  0.206758  0.459863  1
  O  O21  1  0.880015  0.313901  0.361333  1
  O  O22  1  0.619985  0.813901  0.638667  1
  O  O23  1  0.119985  0.686099  0.638667  1
  O  O24  1  0.380015  0.186099  0.361333  1
  O  O25  1  0.186930  0.957237  0.469286  1
  O  O26  1  0.313070  0.457237  0.530714  1
  O  O27  1  0.813070  0.042763  0.530714  1
  O  O28  1  0.686930  0.542763  0.469286  1
  O  O29  1  0.935686  0.005973  0.384442  1
  O  O30  1  0.564314  0.505973  0.615558  1
  O  O31  1  0.064314  0.994027  0.615558  1
  O  O32  1  0.435686  0.494027  0.384442  1
  O  O33  1  0.100707  0.339574  0.609586  1
  O  O34  1  0.399293  0.839574  0.390414  1
  O  O35  1  0.899293  0.660426  0.390414  1
  O  O36  1  0.600707  0.160426  0.609586  1
  O  O37  1  0.765179  0.343350  0.545163  1
  O  O38  1  0.734821  0.843350  0.454837  1
  O  O39  1  0.234821  0.656650  0.454837  1
  O  O40  1  0.265179  0.156650  0.545163  1
