# generated using pymatgen
data_LiH2N
_symmetry_space_group_name_H-M   'P 1'
_cell_length_a   3.62139128
_cell_length_b   3.62139128
_cell_length_c   23.36907200
_cell_angle_alpha   90.00000000
_cell_angle_beta   90.00000000
_cell_angle_gamma   90.00000000
_symmetry_Int_Tables_number   1
_chemical_formula_structural   LiH2N
_chemical_formula_sum   'Li2 H4 N2'
_cell_volume   306.47310591
_cell_formula_units_Z   2
loop_
 _symmetry_equiv_pos_site_id
 _symmetry_equiv_pos_as_xyz
  1  'x, y, z'
loop_
 _atom_site_type_symbol
 _atom_site_label
 _atom_site_symmetry_multiplicity
 _atom_site_fract_x
 _atom_site_fract_y
 _atom_site_fract_z
 _atom_site_occupancy
  Li  Li1  1  0.500000  0.500000  0.500000  1
  Li  Li2  1  0.000000  -0.000000  0.500000  1
  H  H3  1  0.345848  0.845848  0.572660  1
  H  H4  1  0.845848  0.654152  0.427340  1
  H  H5  1  0.654152  0.154152  0.572660  1
  H  H6  1  0.154152  0.345848  0.427340  1
  N  N7  1  0.500000  -0.000000  0.544316  1
  N  N8  1  0.000000  0.500000  0.455684  1
