# generated using pymatgen
data_ZnSiN2
_symmetry_space_group_name_H-M   'P 1'
_cell_length_a   5.59048077
_cell_length_b   5.70765675
_cell_length_c   23.98822500
_cell_angle_alpha   90.00000000
_cell_angle_beta   90.00000000
_cell_angle_gamma   90.00000000
_symmetry_Int_Tables_number   1
_chemical_formula_structural   ZnSiN2
_chemical_formula_sum   'Zn4 Si4 N8'
_cell_volume   765.42936414
_cell_formula_units_Z   4
loop_
 _symmetry_equiv_pos_site_id
 _symmetry_equiv_pos_as_xyz
  1  'x, y, z'
loop_
 _atom_site_type_symbol
 _atom_site_label
 _atom_site_symmetry_multiplicity
 _atom_site_fract_x
 _atom_site_fract_y
 _atom_site_fract_z
 _atom_site_occupancy
  Zn  Zn1  1  0.500000  0.044902  0.426740  1
  Zn  Zn2  1  0.500000  0.955098  0.573260  1
  Zn  Zn3  1  0.000000  0.544902  0.573260  1
  Zn  Zn4  1  0.000000  0.455098  0.426740  1
  Si  Si5  1  -0.000000  0.126919  0.540215  1
  Si  Si6  1  -0.000000  0.873081  0.459785  1
  Si  Si7  1  0.500000  0.626919  0.459785  1
  Si  Si8  1  0.500000  0.373081  0.540215  1
  N  N9  1  0.500000  0.329172  0.466753  1
  N  N10  1  0.500000  0.670828  0.533247  1
  N  N11  1  0.000000  0.829172  0.533247  1
  N  N12  1  0.000000  0.170828  0.466753  1
  N  N13  1  0.750000  0.250000  0.573259  1
  N  N14  1  0.750000  0.750000  0.426741  1
  N  N15  1  0.250000  0.750000  0.426741  1
  N  N16  1  0.250000  0.250000  0.573259  1
