# generated using pymatgen
data_RbPbI3
_symmetry_space_group_name_H-M   'P 1'
_cell_length_a   5.61017936
_cell_length_b   8.24906669
_cell_length_c   28.61734700
_cell_angle_alpha   90.00000000
_cell_angle_beta   90.00000000
_cell_angle_gamma   90.00000000
_symmetry_Int_Tables_number   1
_chemical_formula_structural   RbPbI3
_chemical_formula_sum   'Rb2 Pb2 I6'
_cell_volume   1324.37486671
_cell_formula_units_Z   2
loop_
 _symmetry_equiv_pos_site_id
 _symmetry_equiv_pos_as_xyz
  1  'x, y, z'
loop_
 _atom_site_type_symbol
 _atom_site_label
 _atom_site_symmetry_multiplicity
 _atom_site_fract_x
 _atom_site_fract_y
 _atom_site_fract_z
 _atom_site_occupancy
  Rb  Rb1  1  0.000000  0.409164  0.450847  1
  Rb  Rb2  1  0.000000  0.909164  0.549153  1
  Pb  Pb3  1  0.500000  0.296119  0.610403  1
  Pb  Pb4  1  0.500000  0.796119  0.389597  1
  I  I5  1  -0.000000  0.473392  0.592326  1
  I  I6  1  0.500000  0.690133  0.490665  1
  I  I7  1  0.500000  0.439327  0.362916  1
  I  I8  1  0.500000  0.190133  0.509335  1
  I  I9  1  0.500000  0.939327  0.637084  1
  I  I10  1  -0.000000  0.973392  0.407674  1
