# generated using pymatgen
data_U(HO2)2
_symmetry_space_group_name_H-M   'P 1'
_cell_length_a   4.29800764
_cell_length_b   6.87930915
_cell_length_c   23.42131400
_cell_angle_alpha   90.00000000
_cell_angle_beta   90.00000000
_cell_angle_gamma   90.00000000
_symmetry_Int_Tables_number   1
_chemical_formula_structural   U(HO2)2
_chemical_formula_sum   'U2 H4 O8'
_cell_volume   692.50556279
_cell_formula_units_Z   2
loop_
 _symmetry_equiv_pos_site_id
 _symmetry_equiv_pos_as_xyz
  1  'x, y, z'
loop_
 _atom_site_type_symbol
 _atom_site_label
 _atom_site_symmetry_multiplicity
 _atom_site_fract_x
 _atom_site_fract_y
 _atom_site_fract_z
 _atom_site_occupancy
  U  U1  1  0.500000  0.000000  0.500000  1
  U  U2  1  -0.000000  0.500000  0.500000  1
  H  H3  1  -0.000000  0.134969  0.572903  1
  H  H4  1  -0.000000  0.865031  0.427097  1
  H  H5  1  0.500000  0.634969  0.427097  1
  H  H6  1  0.500000  0.365031  0.572903  1
  O  O7  1  0.500000  0.091501  0.427755  1
  O  O8  1  0.500000  0.908499  0.572245  1
  O  O9  1  -0.000000  0.591501  0.572245  1
  O  O10  1  0.000000  0.408499  0.427755  1
  O  O11  1  0.000000  0.150370  0.531337  1
  O  O12  1  -0.000000  0.849630  0.468663  1
  O  O13  1  0.500000  0.650370  0.468663  1
  O  O14  1  0.500000  0.349630  0.531337  1
