# generated using pymatgen
data_CrCuO4
_symmetry_space_group_name_H-M   'P 1'
_cell_length_a   5.41460491
_cell_length_b   5.80378598
_cell_length_c   24.27758000
_cell_angle_alpha   90.00000000
_cell_angle_beta   90.00000000
_cell_angle_gamma   90.00000000
_symmetry_Int_Tables_number   1
_chemical_formula_structural   CrCuO4
_chemical_formula_sum   'Cr2 Cu2 O8'
_cell_volume   762.92800279
_cell_formula_units_Z   2
loop_
 _symmetry_equiv_pos_site_id
 _symmetry_equiv_pos_as_xyz
  1  'x, y, z'
loop_
 _atom_site_type_symbol
 _atom_site_label
 _atom_site_symmetry_multiplicity
 _atom_site_fract_x
 _atom_site_fract_y
 _atom_site_fract_z
 _atom_site_occupancy
  Cr  Cr1  1  0.500000  0.250000  0.449188  1
  Cr  Cr2  1  0.500000  0.750000  0.550812  1
  Cu  Cu3  1  -0.000000  0.500000  0.500000  1
  Cu  Cu4  1  -0.000000  -0.000000  0.500000  1
  O  O5  1  0.232840  0.750000  0.508362  1
  O  O6  1  0.767161  0.250000  0.491638  1
  O  O7  1  0.232840  0.250000  0.491638  1
  O  O8  1  0.767161  0.750000  0.508362  1
  O  O9  1  0.500000  0.976657  0.588514  1
  O  O10  1  0.500000  0.476657  0.411486  1
  O  O11  1  0.500000  0.523344  0.588514  1
  O  O12  1  0.500000  0.023344  0.411486  1
