# generated using pymatgen
data_BaNiF4
_symmetry_space_group_name_H-M   'P 1'
_cell_length_a   4.06627897
_cell_length_b   5.93746699
_cell_length_c   26.55765600
_cell_angle_alpha   90.00000000
_cell_angle_beta   90.00000000
_cell_angle_gamma   90.00000000
_symmetry_Int_Tables_number   1
_chemical_formula_structural   BaNiF4
_chemical_formula_sum   'Ba2 Ni2 F8'
_cell_volume   641.19203635
_cell_formula_units_Z   2
loop_
 _symmetry_equiv_pos_site_id
 _symmetry_equiv_pos_as_xyz
  1  'x, y, z'
loop_
 _atom_site_type_symbol
 _atom_site_label
 _atom_site_symmetry_multiplicity
 _atom_site_fract_x
 _atom_site_fract_y
 _atom_site_fract_z
 _atom_site_occupancy
  Ba  Ba1  1  0.000000  0.959041  0.439378  1
  Ba  Ba2  1  0.500000  0.459041  0.560622  1
  Ni  Ni3  1  -0.000000  0.019845  0.589343  1
  Ni  Ni4  1  0.500000  0.519845  0.410657  1
  F  F5  1  -0.000000  0.732660  0.554736  1
  F  F6  1  -0.000000  0.492045  0.404984  1
  F  F7  1  -0.000000  0.313467  0.621455  1
  F  F8  1  0.500000  0.813467  0.378545  1
  F  F9  1  -0.000000  0.192643  0.525252  1
  F  F10  1  0.500000  0.692643  0.474748  1
  F  F11  1  0.500000  0.232660  0.445264  1
  F  F12  1  0.500000  0.992045  0.595016  1
