# generated using pymatgen
data_TbGaI
_symmetry_space_group_name_H-M   'P 1'
_cell_length_a   4.18913711
_cell_length_b   4.18913763
_cell_length_c   28.07225100
_cell_angle_alpha   90.00000000
_cell_angle_beta   90.00000000
_cell_angle_gamma   119.99999582
_symmetry_Int_Tables_number   1
_chemical_formula_structural   TbGaI
_chemical_formula_sum   'Tb2 Ga2 I2'
_cell_volume   426.63560049
_cell_formula_units_Z   2
loop_
 _symmetry_equiv_pos_site_id
 _symmetry_equiv_pos_as_xyz
  1  'x, y, z'
loop_
 _atom_site_type_symbol
 _atom_site_label
 _atom_site_symmetry_multiplicity
 _atom_site_fract_x
 _atom_site_fract_y
 _atom_site_fract_z
 _atom_site_occupancy
  Tb  Tb1  1  -0.000000  -0.000000  0.571928  1
  Tb  Tb2  1  0.000000  0.000000  0.428073  1
  Ga  Ga3  1  0.666667  0.333333  0.513128  1
  Ga  Ga4  1  0.333333  0.666667  0.486872  1
  I  I5  1  0.666667  0.333333  0.356276  1
  I  I6  1  0.333333  0.666667  0.643724  1
