# generated using pymatgen
data_ZnH4(ClO3)2
_symmetry_space_group_name_H-M   'P 1'
_cell_length_a   6.33372577
_cell_length_b   8.50071530
_cell_length_c   21.74820100
_cell_angle_alpha   73.36833006
_cell_angle_beta   90.00000000
_cell_angle_gamma   90.00000000
_symmetry_Int_Tables_number   1
_chemical_formula_structural   ZnH4(ClO3)2
_chemical_formula_sum   'Zn2 H8 Cl4 O12'
_cell_volume   1121.96200216
_cell_formula_units_Z   2
loop_
 _symmetry_equiv_pos_site_id
 _symmetry_equiv_pos_as_xyz
  1  'x, y, z'
loop_
 _atom_site_type_symbol
 _atom_site_label
 _atom_site_symmetry_multiplicity
 _atom_site_fract_x
 _atom_site_fract_y
 _atom_site_fract_z
 _atom_site_occupancy
  Zn  Zn1  1  0.500000  0.000000  0.500000  1
  Zn  Zn2  1  -0.000000  0.500000  0.500000  1
  H  H3  1  0.065611  0.386690  0.395720  1
  H  H4  1  0.434389  0.886690  0.395720  1
  H  H5  1  0.934389  0.613310  0.604280  1
  H  H6  1  0.565611  0.113310  0.604280  1
  H  H7  1  0.374065  0.206755  0.564719  1
  H  H8  1  0.125935  0.706755  0.564719  1
  H  H9  1  0.625935  0.793245  0.435281  1
  H  H10  1  0.874065  0.293245  0.435281  1
  Cl  Cl11  1  0.428829  0.377544  0.450920  1
  Cl  Cl12  1  0.071171  0.877544  0.450920  1
  Cl  Cl13  1  0.571171  0.622456  0.549080  1
  Cl  Cl14  1  0.928829  0.122456  0.549080  1
  O  O15  1  0.300070  0.390443  0.513319  1
  O  O16  1  0.199930  0.890443  0.513319  1
  O  O17  1  0.699930  0.609557  0.486681  1
  O  O18  1  0.800070  0.109557  0.486681  1
  O  O19  1  0.363774  0.213339  0.435136  1
  O  O20  1  0.136226  0.713339  0.435136  1
  O  O21  1  0.636226  0.786661  0.564864  1
  O  O22  1  0.863774  0.286661  0.564864  1
  O  O23  1  0.438014  0.094784  0.581981  1
  O  O24  1  0.061986  0.594784  0.581981  1
  O  O25  1  0.561987  0.905216  0.418019  1
  O  O26  1  0.938013  0.405216  0.418019  1
