# generated using pymatgen
data_AgClO2
_symmetry_space_group_name_H-M   'P 1'
_cell_length_a   3.67037323
_cell_length_b   3.95079190
_cell_length_c   29.63606300
_cell_angle_alpha   90.00000000
_cell_angle_beta   90.00000000
_cell_angle_gamma   90.00000000
_symmetry_Int_Tables_number   1
_chemical_formula_structural   AgClO2
_chemical_formula_sum   'Ag2 Cl2 O4'
_cell_volume   429.74901775
_cell_formula_units_Z   2
loop_
 _symmetry_equiv_pos_site_id
 _symmetry_equiv_pos_as_xyz
  1  'x, y, z'
loop_
 _atom_site_type_symbol
 _atom_site_label
 _atom_site_symmetry_multiplicity
 _atom_site_fract_x
 _atom_site_fract_y
 _atom_site_fract_z
 _atom_site_occupancy
  Ag  Ag1  1  0.250000  0.601179  0.453345  1
  Ag  Ag2  1  0.750000  0.095323  0.546655  1
  Cl  Cl3  1  0.750000  0.100607  0.449844  1
  Cl  Cl4  1  0.250000  0.595894  0.550156  1
  O  O5  1  0.250000  0.594307  0.360913  1
  O  O6  1  0.250000  0.854809  0.337812  1
  O  O7  1  0.750000  0.841693  0.662188  1
  O  O8  1  0.750000  0.102194  0.639087  1
