# generated using pymatgen
data_Al3Ru2
_symmetry_space_group_name_H-M   'P 1'
_cell_length_a   3.04791133
_cell_length_b   3.04791133
_cell_length_c   25.54413300
_cell_angle_alpha   90.00000000
_cell_angle_beta   90.00000000
_cell_angle_gamma   90.00000000
_symmetry_Int_Tables_number   1
_chemical_formula_structural   Al3Ru2
_chemical_formula_sum   'Al3 Ru2'
_cell_volume   237.29895376
_cell_formula_units_Z   1
loop_
 _symmetry_equiv_pos_site_id
 _symmetry_equiv_pos_as_xyz
  1  'x, y, z'
loop_
 _atom_site_type_symbol
 _atom_site_label
 _atom_site_symmetry_multiplicity
 _atom_site_fract_x
 _atom_site_fract_y
 _atom_site_fract_z
 _atom_site_occupancy
  Al  Al1  1  0.000000  -0.000000  0.500000  1
  Al  Al2  1  -0.000000  0.000000  0.609018  1
  Al  Al3  1  0.000000  0.000000  0.390982  1
  Ru  Ru4  1  0.500000  0.500000  0.438969  1
  Ru  Ru5  1  0.500000  0.500000  0.561031  1
