# generated using pymatgen
data_Ga2Fe2S5
_symmetry_space_group_name_H-M   'P 1'
_cell_length_a   3.60866603
_cell_length_b   3.60866603
_cell_length_c   32.01190500
_cell_angle_alpha   90.00000000
_cell_angle_beta   90.00000000
_cell_angle_gamma   59.99999093
_symmetry_Int_Tables_number   1
_chemical_formula_structural   Ga2Fe2S5
_chemical_formula_sum   'Ga2 Fe2 S5'
_cell_volume   361.02351827
_cell_formula_units_Z   1
loop_
 _symmetry_equiv_pos_site_id
 _symmetry_equiv_pos_as_xyz
  1  'x, y, z'
loop_
 _atom_site_type_symbol
 _atom_site_label
 _atom_site_symmetry_multiplicity
 _atom_site_fract_x
 _atom_site_fract_y
 _atom_site_fract_z
 _atom_site_occupancy
  Ga  Ga1  1  0.000000  0.000000  0.654114  1
  Ga  Ga2  1  0.333333  0.333333  0.345886  1
  Fe  Fe3  1  0.333333  0.333333  0.543490  1
  Fe  Fe4  1  0.000000  0.000000  0.456510  1
  S  S5  1  0.666667  0.666667  0.312504  1
  S  S6  1  0.333333  0.333333  0.415831  1
  S  S7  1  0.666667  0.666667  0.687496  1
  S  S8  1  -0.000000  -0.000000  0.584169  1
  S  S9  1  0.666667  0.666667  0.500000  1
