# generated using pymatgen
data_FeClO
_symmetry_space_group_name_H-M   'P 1'
_cell_length_a   3.29714455
_cell_length_b   3.87519867
_cell_length_c   25.25337000
_cell_angle_alpha   90.00000000
_cell_angle_beta   90.00000000
_cell_angle_gamma   90.00000000
_symmetry_Int_Tables_number   1
_chemical_formula_structural   FeClO
_chemical_formula_sum   'Fe2 Cl2 O2'
_cell_volume   322.66458571
_cell_formula_units_Z   2
loop_
 _symmetry_equiv_pos_site_id
 _symmetry_equiv_pos_as_xyz
  1  'x, y, z'
loop_
 _atom_site_type_symbol
 _atom_site_label
 _atom_site_symmetry_multiplicity
 _atom_site_fract_x
 _atom_site_fract_y
 _atom_site_fract_z
 _atom_site_occupancy
  Fe  Fe1  1  0.500000  0.000000  0.535446  1
  Fe  Fe2  1  0.000000  0.500000  0.464554  1
  Cl  Cl3  1  -0.000000  0.000000  0.604076  1
  Cl  Cl4  1  0.500000  0.500000  0.395924  1
  O  O5  1  -0.000000  0.000000  0.484441  1
  O  O6  1  0.500000  0.500000  0.515559  1
