# generated using pymatgen
data_VOF3
_symmetry_space_group_name_H-M   'P 1'
_cell_length_a   7.31183954
_cell_length_b   8.19032652
_cell_length_c   22.99387100
_cell_angle_alpha   90.00000000
_cell_angle_beta   90.00000000
_cell_angle_gamma   90.00000000
_symmetry_Int_Tables_number   1
_chemical_formula_structural   VOF3
_chemical_formula_sum   'V4 O4 F12'
_cell_volume   1377.01908231
_cell_formula_units_Z   4
loop_
 _symmetry_equiv_pos_site_id
 _symmetry_equiv_pos_as_xyz
  1  'x, y, z'
loop_
 _atom_site_type_symbol
 _atom_site_label
 _atom_site_symmetry_multiplicity
 _atom_site_fract_x
 _atom_site_fract_y
 _atom_site_fract_z
 _atom_site_occupancy
  V  V1  1  0.004687  0.040973  0.505760  1
  V  V2  1  0.495312  0.540973  0.505760  1
  V  V3  1  0.504687  0.040973  0.494240  1
  V  V4  1  0.995313  0.540973  0.494240  1
  O  O5  1  0.020291  0.723764  0.469785  1
  O  O6  1  0.479709  0.223764  0.469785  1
  O  O7  1  0.520291  0.723764  0.530215  1
  O  O8  1  0.979709  0.223764  0.530215  1
  F  F9  1  0.048368  0.408711  0.435857  1
  F  F10  1  0.085743  0.054197  0.433468  1
  F  F11  1  0.236916  0.507018  0.527007  1
  F  F12  1  0.263084  0.007018  0.527007  1
  F  F13  1  0.414257  0.554197  0.433468  1
  F  F14  1  0.451632  0.908711  0.435857  1
  F  F15  1  0.548368  0.408711  0.564143  1
  F  F16  1  0.585743  0.054197  0.566532  1
  F  F17  1  0.736916  0.507018  0.472993  1
  F  F18  1  0.763084  0.007018  0.472993  1
  F  F19  1  0.914257  0.554197  0.566532  1
  F  F20  1  0.951632  0.908711  0.564143  1
