# generated using pymatgen
data_NiBr2
_symmetry_space_group_name_H-M   'P 1'
_cell_length_a   3.64969750
_cell_length_b   3.64969793
_cell_length_c   22.80304300
_cell_angle_alpha   90.00000000
_cell_angle_beta   90.00000000
_cell_angle_gamma   59.99999506
_symmetry_Int_Tables_number   1
_chemical_formula_structural   NiBr2
_chemical_formula_sum   'Ni1 Br2'
_cell_volume   263.04933493
_cell_formula_units_Z   1
loop_
 _symmetry_equiv_pos_site_id
 _symmetry_equiv_pos_as_xyz
  1  'x, y, z'
loop_
 _atom_site_type_symbol
 _atom_site_label
 _atom_site_symmetry_multiplicity
 _atom_site_fract_x
 _atom_site_fract_y
 _atom_site_fract_z
 _atom_site_occupancy
  Ni  Ni1  1  -0.000000  0.000000  0.500000  1
  Br  Br2  1  0.333333  0.333333  0.562181  1
  Br  Br3  1  0.666667  0.666667  0.437819  1
