# generated using pymatgen
data_CdCN2
_symmetry_space_group_name_H-M   'P 1'
_cell_length_a   3.67382234
_cell_length_b   3.67382260
_cell_length_c   23.30262000
_cell_angle_alpha   90.00000000
_cell_angle_beta   90.00000000
_cell_angle_gamma   60.00000230
_symmetry_Int_Tables_number   1
_chemical_formula_structural   CdCN2
_chemical_formula_sum   'Cd1 C1 N2'
_cell_volume   272.37781172
_cell_formula_units_Z   1
loop_
 _symmetry_equiv_pos_site_id
 _symmetry_equiv_pos_as_xyz
  1  'x, y, z'
loop_
 _atom_site_type_symbol
 _atom_site_label
 _atom_site_symmetry_multiplicity
 _atom_site_fract_x
 _atom_site_fract_y
 _atom_site_fract_z
 _atom_site_occupancy
  Cd  Cd1  1  -0.000000  -0.000000  0.469289  1
  C  C2  1  0.666667  0.666667  0.524039  1
  N  N3  1  0.333333  0.333333  0.432096  1
  N  N4  1  0.666667  0.666667  0.574577  1
