# generated using pymatgen
data_TaNb2Zn2O8
_symmetry_space_group_name_H-M   'P 1'
_cell_length_a   5.29426263
_cell_length_b   6.06746720
_cell_length_c   28.67520800
_cell_angle_alpha   90.00000000
_cell_angle_beta   90.00000000
_cell_angle_gamma   87.94447975
_symmetry_Int_Tables_number   1
_chemical_formula_structural   TaNb2Zn2O8
_chemical_formula_sum   'Ta2 Nb4 Zn4 O16'
_cell_volume   920.53425547
_cell_formula_units_Z   2
loop_
 _symmetry_equiv_pos_site_id
 _symmetry_equiv_pos_as_xyz
  1  'x, y, z'
loop_
 _atom_site_type_symbol
 _atom_site_label
 _atom_site_symmetry_multiplicity
 _atom_site_fract_x
 _atom_site_fract_y
 _atom_site_fract_z
 _atom_site_occupancy
  Ta  Ta1  1  0.990996  0.144012  0.502125  1
  Ta  Ta2  1  0.477979  0.452480  0.497837  1
  Nb  Nb3  1  0.923946  0.659435  0.416887  1
  Nb  Nb4  1  0.979134  0.698161  0.578886  1
  Nb  Nb5  1  0.545433  0.937048  0.583093  1
  Nb  Nb6  1  0.489728  0.898465  0.421069  1
  Zn  Zn7  1  0.052051  0.190967  0.634166  1
  Zn  Zn8  1  0.944588  0.137160  0.370409  1
  Zn  Zn9  1  0.416843  0.405468  0.365799  1
  Zn  Zn10  1  0.524671  0.459539  0.629594  1
  O  O11  1  0.287132  0.648831  0.455953  1
  O  O12  1  0.642048  0.661293  0.537644  1
  O  O13  1  0.182029  0.947825  0.544095  1
  O  O14  1  0.826824  0.935194  0.462396  1
  O  O15  1  0.807866  0.396038  0.461162  1
  O  O16  1  0.157550  0.425172  0.535359  1
  O  O17  1  0.660951  0.200454  0.538850  1
  O  O18  1  0.311157  0.171210  0.464639  1
  O  O19  1  0.614137  0.651992  0.375803  1
  O  O20  1  0.335103  0.721960  0.616960  1
  O  O21  1  0.583232  0.122657  0.374225  1
  O  O22  1  0.404578  0.175185  0.631030  1
  O  O23  1  0.885934  0.473774  0.625764  1
  O  O24  1  0.064499  0.421567  0.368958  1
  O  O25  1  0.133916  0.874552  0.383074  1
  O  O26  1  0.854980  0.944473  0.624222  1
