# generated using pymatgen
data_PAuS
_symmetry_space_group_name_H-M   'P 1'
_cell_length_a   5.58049176
_cell_length_b   5.65971147
_cell_length_c   21.37714900
_cell_angle_alpha   90.00000000
_cell_angle_beta   90.00000000
_cell_angle_gamma   90.00000000
_symmetry_Int_Tables_number   1
_chemical_formula_structural   PAuS
_chemical_formula_sum   'P2 Au2 S2'
_cell_volume   675.17530159
_cell_formula_units_Z   2
loop_
 _symmetry_equiv_pos_site_id
 _symmetry_equiv_pos_as_xyz
  1  'x, y, z'
loop_
 _atom_site_type_symbol
 _atom_site_label
 _atom_site_symmetry_multiplicity
 _atom_site_fract_x
 _atom_site_fract_y
 _atom_site_fract_z
 _atom_site_occupancy
  P  P1  1  0.345366  0.075488  0.534910  1
  P  P2  1  0.654634  0.575488  0.534910  1
  Au  Au3  1  0.259400  0.681553  0.499340  1
  Au  Au4  1  0.740600  0.181553  0.499340  1
  S  S5  1  0.154409  0.279266  0.465749  1
  S  S6  1  0.845591  0.779266  0.465749  1
