# generated using pymatgen
data_BiI3
_symmetry_space_group_name_H-M   'P 1'
_cell_length_a   7.60368543
_cell_length_b   7.60368624
_cell_length_c   23.70417354
_cell_angle_alpha   90.00000000
_cell_angle_beta   90.00000000
_cell_angle_gamma   59.99999955
_symmetry_Int_Tables_number   1
_chemical_formula_structural   BiI3
_chemical_formula_sum   'Bi2 I6'
_cell_volume   1186.87170627
_cell_formula_units_Z   2
loop_
 _symmetry_equiv_pos_site_id
 _symmetry_equiv_pos_as_xyz
  1  'x, y, z'
loop_
 _atom_site_type_symbol
 _atom_site_label
 _atom_site_symmetry_multiplicity
 _atom_site_fract_x
 _atom_site_fract_y
 _atom_site_fract_z
 _atom_site_occupancy
  Bi  Bi1  1  0.666667  0.666667  0.500195  1
  Bi  Bi2  1  0.333333  0.333333  0.499805  1
  I  I3  1  0.337593  0.999951  0.576952  1
  I  I4  1  0.662457  0.337593  0.576952  1
  I  I5  1  0.000049  0.337543  0.423048  1
  I  I6  1  0.337543  0.662407  0.423048  1
  I  I7  1  0.662407  0.000049  0.423048  1
  I  I8  1  0.999951  0.662457  0.576952  1
