# generated using pymatgen
data_VAg(PSe3)2
_symmetry_space_group_name_H-M   'P 1'
_cell_length_a   6.36676147
_cell_length_b   6.42180239
_cell_length_c   23.49278100
_cell_angle_alpha   90.00000000
_cell_angle_beta   90.00000000
_cell_angle_gamma   60.28312192
_symmetry_Int_Tables_number   1
_chemical_formula_structural   VAg(PSe3)2
_chemical_formula_sum   'V1 Ag1 P2 Se6'
_cell_volume   834.20450622
_cell_formula_units_Z   1
loop_
 _symmetry_equiv_pos_site_id
 _symmetry_equiv_pos_as_xyz
  1  'x, y, z'
loop_
 _atom_site_type_symbol
 _atom_site_label
 _atom_site_symmetry_multiplicity
 _atom_site_fract_x
 _atom_site_fract_y
 _atom_site_fract_z
 _atom_site_occupancy
  V  V1  1  0.321273  0.357454  0.500000  1
  Ag  Ag2  1  0.671049  0.657901  0.500000  1
  P  P3  1  0.000017  0.007221  0.547300  1
  P  P4  1  0.992762  0.007221  0.452700  1
  Se  Se5  1  0.304629  0.654172  0.425472  1
  Se  Se6  1  0.041199  0.654172  0.574528  1
  Se  Se7  1  0.642001  0.316642  0.573525  1
  Se  Se8  1  0.041357  0.316642  0.426475  1
  Se  Se9  1  0.637023  0.047692  0.428224  1
  Se  Se10  1  0.315284  0.047692  0.571776  1
