# generated using pymatgen
data_Sn2P3O10
_symmetry_space_group_name_H-M   'P 1'
_cell_length_a   7.42748405
_cell_length_b   7.42748407
_cell_length_c   24.50630500
_cell_angle_alpha   90.00000000
_cell_angle_beta   90.00000000
_cell_angle_gamma   92.05933853
_symmetry_Int_Tables_number   1
_chemical_formula_structural   Sn2P3O10
_chemical_formula_sum   'Sn2 P3 O10'
_cell_volume   1351.07889516
_cell_formula_units_Z   1
loop_
 _symmetry_equiv_pos_site_id
 _symmetry_equiv_pos_as_xyz
  1  'x, y, z'
loop_
 _atom_site_type_symbol
 _atom_site_label
 _atom_site_symmetry_multiplicity
 _atom_site_fract_x
 _atom_site_fract_y
 _atom_site_fract_z
 _atom_site_occupancy
  Sn  Sn1  1  0.993305  0.422787  0.554496  1
  Sn  Sn2  1  0.422787  0.993305  0.445504  1
  P  P3  1  0.650584  0.650584  0.500000  1
  P  P4  1  0.678443  0.274804  0.464494  1
  P  P5  1  0.274804  0.678443  0.535506  1
  O  O6  1  0.627913  0.486691  0.458485  1
  O  O7  1  0.819694  0.637338  0.533757  1
  O  O8  1  0.276594  0.871726  0.513777  1
  O  O9  1  0.534338  0.186670  0.502658  1
  O  O10  1  0.637338  0.819694  0.466243  1
  O  O11  1  0.186670  0.534338  0.497342  1
  O  O12  1  0.187214  0.653226  0.591414  1
  O  O13  1  0.653226  0.187214  0.408586  1
  O  O14  1  0.486691  0.627913  0.541515  1
  O  O15  1  0.871726  0.276594  0.486223  1
