# generated using pymatgen
data_Te6Br2O11
_symmetry_space_group_name_H-M   'P 1'
_cell_length_a   6.81267715
_cell_length_b   15.68428692
_cell_length_c   24.02319700
_cell_angle_alpha   90.00000000
_cell_angle_beta   90.00000000
_cell_angle_gamma   90.00000000
_symmetry_Int_Tables_number   1
_chemical_formula_structural   Te6Br2O11
_chemical_formula_sum   'Te12 Br4 O22'
_cell_volume   2566.92624019
_cell_formula_units_Z   2
loop_
 _symmetry_equiv_pos_site_id
 _symmetry_equiv_pos_as_xyz
  1  'x, y, z'
loop_
 _atom_site_type_symbol
 _atom_site_label
 _atom_site_symmetry_multiplicity
 _atom_site_fract_x
 _atom_site_fract_y
 _atom_site_fract_z
 _atom_site_occupancy
  Te  Te1  1  0.421644  0.360044  0.500000  1
  Te  Te2  1  0.578356  0.860044  0.500000  1
  Te  Te3  1  0.421644  0.139956  0.500000  1
  Te  Te4  1  0.578356  0.639956  0.500000  1
  Te  Te5  1  0.124024  0.586831  0.424208  1
  Te  Te6  1  0.875976  0.086831  0.575792  1
  Te  Te7  1  0.124024  0.913169  0.575792  1
  Te  Te8  1  0.875976  0.413169  0.424208  1
  Te  Te9  1  0.875976  0.413169  0.575792  1
  Te  Te10  1  0.124024  0.913169  0.424208  1
  Te  Te11  1  0.875976  0.086831  0.424208  1
  Te  Te12  1  0.124024  0.586831  0.575792  1
  Br  Br13  1  0.186475  0.250000  0.411820  1
  Br  Br14  1  0.813526  0.750000  0.588180  1
  Br  Br15  1  0.186475  0.250000  0.588180  1
  Br  Br16  1  0.813526  0.750000  0.411820  1
  O  O17  1  0.563820  0.250000  0.500000  1
  O  O18  1  0.436180  0.750000  0.500000  1
  O  O19  1  0.414419  0.598214  0.440659  1
  O  O20  1  0.585581  0.098214  0.559341  1
  O  O21  1  0.414419  0.901786  0.559341  1
  O  O22  1  0.585581  0.401786  0.440659  1
  O  O23  1  0.585581  0.401786  0.559341  1
  O  O24  1  0.414419  0.901786  0.440659  1
  O  O25  1  0.585581  0.098214  0.440659  1
  O  O26  1  0.414419  0.598214  0.559341  1
  O  O27  1  0.832364  0.534479  0.572778  1
  O  O28  1  0.167636  0.034479  0.427222  1
  O  O29  1  0.832364  0.965521  0.427222  1
  O  O30  1  0.167636  0.465521  0.572778  1
  O  O31  1  0.167636  0.465521  0.427222  1
  O  O32  1  0.832364  0.965521  0.572778  1
  O  O33  1  0.062088  0.622336  0.500000  1
  O  O34  1  0.937912  0.122336  0.500000  1
  O  O35  1  0.062088  0.877664  0.500000  1
  O  O36  1  0.937912  0.377664  0.500000  1
  O  O37  1  0.832364  0.534479  0.427222  1
  O  O38  1  0.167636  0.034479  0.572778  1
