# generated using pymatgen
data_MgCo4O9
_symmetry_space_group_name_H-M   'P 1'
_cell_length_a   8.25245264
_cell_length_b   8.38466528
_cell_length_c   26.25034000
_cell_angle_alpha   90.00000000
_cell_angle_beta   90.00000000
_cell_angle_gamma   90.36991874
_symmetry_Int_Tables_number   1
_chemical_formula_structural   MgCo4O9
_chemical_formula_sum   'Mg2 Co8 O18'
_cell_volume   1816.32956452
_cell_formula_units_Z   2
loop_
 _symmetry_equiv_pos_site_id
 _symmetry_equiv_pos_as_xyz
  1  'x, y, z'
loop_
 _atom_site_type_symbol
 _atom_site_label
 _atom_site_symmetry_multiplicity
 _atom_site_fract_x
 _atom_site_fract_y
 _atom_site_fract_z
 _atom_site_occupancy
  Mg  Mg1  1  0.244664  0.252850  0.403000  1
  Mg  Mg2  1  0.747521  0.752138  0.596623  1
  Co  Co3  1  0.337185  0.528738  0.480659  1
  Co  Co4  1  0.464228  0.838235  0.519954  1
  Co  Co5  1  0.962846  0.338189  0.480025  1
  Co  Co6  1  0.837574  0.026658  0.519741  1
  Co  Co7  1  0.161273  0.972588  0.479390  1
  Co  Co8  1  0.535444  0.162851  0.479362  1
  Co  Co9  1  0.663806  0.471726  0.520506  1
  Co  Co10  1  0.039282  0.663297  0.520440  1
  O  O11  1  0.250936  0.750405  0.497848  1
  O  O12  1  0.752325  0.249605  0.501548  1
  O  O13  1  0.976992  0.684924  0.581972  1
  O  O14  1  0.683107  0.521195  0.583955  1
  O  O15  1  0.820848  0.979843  0.583556  1
  O  O16  1  0.517126  0.817186  0.582836  1
  O  O17  1  0.016990  0.317818  0.417209  1
  O  O18  1  0.321055  0.478805  0.417017  1
  O  O19  1  0.183912  0.021625  0.415883  1
  O  O20  1  0.476246  0.184235  0.416639  1
  O  O21  1  0.361825  0.036002  0.510669  1
  O  O22  1  0.040461  0.145276  0.505118  1
  O  O23  1  0.459894  0.356110  0.509027  1
  O  O24  1  0.139559  0.465905  0.511777  1
  O  O25  1  0.861029  0.534784  0.488628  1
  O  O26  1  0.963795  0.852570  0.493326  1
  O  O27  1  0.538746  0.645272  0.494393  1
  O  O28  1  0.644547  0.958770  0.488899  1
