# generated using pymatgen
data_Ca(BiO2)4
_symmetry_space_group_name_H-M   'P 1'
_cell_length_a   3.45546051
_cell_length_b   10.52467559
_cell_length_c   25.55233775
_cell_angle_alpha   89.06687574
_cell_angle_beta   90.01937604
_cell_angle_gamma   89.98990089
_symmetry_Int_Tables_number   1
_chemical_formula_structural   Ca(BiO2)4
_chemical_formula_sum   'Ca1 Bi4 O8'
_cell_volume   929.15391646
_cell_formula_units_Z   1
loop_
 _symmetry_equiv_pos_site_id
 _symmetry_equiv_pos_as_xyz
  1  'x, y, z'
loop_
 _atom_site_type_symbol
 _atom_site_label
 _atom_site_symmetry_multiplicity
 _atom_site_fract_x
 _atom_site_fract_y
 _atom_site_fract_z
 _atom_site_occupancy
  Ca  Ca1  1  0.503426  0.029799  0.535081  1
  Bi  Bi2  1  0.003239  0.842346  0.441732  1
  Bi  Bi3  1  0.501127  0.215491  0.426467  1
  Bi  Bi4  1  0.003106  0.355214  0.547508  1
  Bi  Bi5  1  0.503091  0.697784  0.552886  1
  O  O6  1  0.003263  0.563383  0.557917  1
  O  O7  1  0.503150  0.323910  0.598792  1
  O  O8  1  0.000957  0.238064  0.377268  1
  O  O9  1  0.503154  0.989010  0.446910  1
  O  O10  1  0.503403  0.708209  0.470418  1
  O  O11  1  0.003259  0.163488  0.522645  1
  O  O12  1  0.003436  0.869457  0.529456  1
  O  O13  1  0.502888  0.388146  0.492920  1
