# generated using pymatgen
data_CrBr2
_symmetry_space_group_name_H-M   'P 1'
_cell_length_a   3.64134870
_cell_length_b   4.02007933
_cell_length_c   23.01400700
_cell_angle_alpha   90.00000000
_cell_angle_beta   90.00000000
_cell_angle_gamma   63.07042261
_symmetry_Int_Tables_number   1
_chemical_formula_structural   CrBr2
_chemical_formula_sum   'Cr1 Br2'
_cell_volume   300.35964782
_cell_formula_units_Z   1
loop_
 _symmetry_equiv_pos_site_id
 _symmetry_equiv_pos_as_xyz
  1  'x, y, z'
loop_
 _atom_site_type_symbol
 _atom_site_label
 _atom_site_symmetry_multiplicity
 _atom_site_fract_x
 _atom_site_fract_y
 _atom_site_fract_z
 _atom_site_occupancy
  Cr  Cr1  1  -0.000000  0.000000  0.500000  1
  Br  Br2  1  0.625125  0.749751  0.566113  1
  Br  Br3  1  0.374875  0.250249  0.433887  1
