# generated using pymatgen
data_TiSnO3
_symmetry_space_group_name_H-M   'P 1'
_cell_length_a   5.11188525
_cell_length_b   5.11188549
_cell_length_c   24.41494800
_cell_angle_alpha   90.00000000
_cell_angle_beta   90.00000000
_cell_angle_gamma   59.99999508
_symmetry_Int_Tables_number   1
_chemical_formula_structural   TiSnO3
_chemical_formula_sum   'Ti2 Sn2 O6'
_cell_volume   552.52079343
_cell_formula_units_Z   2
loop_
 _symmetry_equiv_pos_site_id
 _symmetry_equiv_pos_as_xyz
  1  'x, y, z'
loop_
 _atom_site_type_symbol
 _atom_site_label
 _atom_site_symmetry_multiplicity
 _atom_site_fract_x
 _atom_site_fract_y
 _atom_site_fract_z
 _atom_site_occupancy
  Ti  Ti1  1  0.333333  0.333333  0.498863  1
  Ti  Ti2  1  0.666667  0.666667  0.501137  1
  Sn  Sn3  1  -0.000000  0.000000  0.408909  1
  Sn  Sn4  1  -0.000000  0.000000  0.591091  1
  O  O5  1  0.643671  0.999720  0.455840  1
  O  O6  1  0.999720  0.356608  0.455840  1
  O  O7  1  0.643392  0.356329  0.544161  1
  O  O8  1  0.356608  0.643671  0.455840  1
  O  O9  1  0.000280  0.643392  0.544161  1
  O  O10  1  0.356329  0.000280  0.544161  1
