# generated using pymatgen
data_GeAs
_symmetry_space_group_name_H-M   'P 1'
_cell_length_a   3.80908423
_cell_length_b   11.24302777
_cell_length_c   25.24853886
_cell_angle_alpha   89.91390346
_cell_angle_beta   90.00000000
_cell_angle_gamma   99.75279455
_symmetry_Int_Tables_number   1
_chemical_formula_structural   GeAs
_chemical_formula_sum   'Ge6 As6'
_cell_volume   1065.65664411
_cell_formula_units_Z   6
loop_
 _symmetry_equiv_pos_site_id
 _symmetry_equiv_pos_as_xyz
  1  'x, y, z'
loop_
 _atom_site_type_symbol
 _atom_site_label
 _atom_site_symmetry_multiplicity
 _atom_site_fract_x
 _atom_site_fract_y
 _atom_site_fract_z
 _atom_site_occupancy
  Ge  Ge1  1  0.818482  0.636964  0.445922  1
  Ge  Ge2  1  0.181518  0.363036  0.554078  1
  Ge  Ge3  1  0.820531  0.641061  0.544754  1
  Ge  Ge4  1  0.179469  0.358939  0.455246  1
  Ge  Ge5  1  0.446058  0.892116  0.487373  1
  Ge  Ge6  1  0.553942  0.107884  0.512627  1
  As  As7  1  0.270996  0.541990  0.398326  1
  As  As8  1  0.729004  0.458010  0.601674  1
  As  As9  1  0.386043  0.772085  0.571817  1
  As  As10  1  0.613957  0.227915  0.428183  1
  As  As11  1  0.927627  0.855255  0.425602  1
  As  As12  1  0.072373  0.144745  0.574398  1
