# generated using pymatgen
data_Na3(TiS2)10
_symmetry_space_group_name_H-M   'P 1'
_cell_length_a   5.94400604
_cell_length_b   9.05386889
_cell_length_c   29.43032269
_cell_angle_alpha   89.97928226
_cell_angle_beta   89.93688575
_cell_angle_gamma   70.83693528
_symmetry_Int_Tables_number   1
_chemical_formula_structural   Na3(TiS2)10
_chemical_formula_sum   'Na3 Ti10 S20'
_cell_volume   1496.06584348
_cell_formula_units_Z   1
loop_
 _symmetry_equiv_pos_site_id
 _symmetry_equiv_pos_as_xyz
  1  'x, y, z'
loop_
 _atom_site_type_symbol
 _atom_site_label
 _atom_site_symmetry_multiplicity
 _atom_site_fract_x
 _atom_site_fract_y
 _atom_site_fract_z
 _atom_site_occupancy
  Na  Na1  1  0.275124  0.000000  0.498917  1
  Na  Na2  1  0.733234  0.387513  0.500899  1
  Na  Na3  1  0.120747  0.612487  0.500899  1
  Ti  Ti4  1  0.864536  0.802038  0.619216  1
  Ti  Ti5  1  0.269919  0.000000  0.619992  1
  Ti  Ti6  1  0.931797  0.000000  0.380505  1
  Ti  Ti7  1  0.666574  0.197962  0.619216  1
  Ti  Ti8  1  0.335953  0.198266  0.380608  1
  Ti  Ti9  1  0.064754  0.400600  0.619821  1
  Ti  Ti10  1  0.733442  0.400868  0.379947  1
  Ti  Ti11  1  0.465354  0.599400  0.619821  1
  Ti  Ti12  1  0.134310  0.599132  0.379947  1
  Ti  Ti13  1  0.534219  0.801734  0.380608  1
  S  S14  1  0.201548  0.800820  0.569821  1
  S  S15  1  0.865703  0.799804  0.333120  1
  S  S16  1  0.602666  0.000000  0.569588  1
  S  S17  1  0.265222  0.000000  0.333227  1
  S  S18  1  0.002367  0.199180  0.569821  1
  S  S19  1  0.665507  0.200196  0.333120  1
  S  S20  1  0.397988  0.399732  0.569458  1
  S  S21  1  0.934655  0.000000  0.666780  1
  S  S22  1  0.066077  0.399669  0.333143  1
  S  S23  1  0.602995  0.000000  0.430250  1
  S  S24  1  0.797721  0.600268  0.569458  1
  S  S25  1  0.334845  0.200327  0.666924  1
  S  S26  1  0.465747  0.600331  0.333143  1
  S  S27  1  0.999964  0.200136  0.430197  1
  S  S28  1  0.734389  0.399592  0.666683  1
  S  S29  1  0.398408  0.399922  0.430535  1
  S  S30  1  0.133981  0.600408  0.666683  1
  S  S31  1  0.798331  0.600078  0.430535  1
  S  S32  1  0.535172  0.799673  0.666924  1
  S  S33  1  0.200100  0.799864  0.430197  1
