# generated using pymatgen
data_Sr2MnClO3
_symmetry_space_group_name_H-M   'P 1'
_cell_length_a   3.88780447
_cell_length_b   3.88780447
_cell_length_c   32.50527300
_cell_angle_alpha   90.00000000
_cell_angle_beta   90.00000000
_cell_angle_gamma   90.00000000
_symmetry_Int_Tables_number   1
_chemical_formula_structural   Sr2MnClO3
_chemical_formula_sum   'Sr4 Mn2 Cl2 O6'
_cell_volume   491.31796842
_cell_formula_units_Z   2
loop_
 _symmetry_equiv_pos_site_id
 _symmetry_equiv_pos_as_xyz
  1  'x, y, z'
loop_
 _atom_site_type_symbol
 _atom_site_label
 _atom_site_symmetry_multiplicity
 _atom_site_fract_x
 _atom_site_fract_y
 _atom_site_fract_z
 _atom_site_occupancy
  Sr  Sr1  1  0.500000  -0.000000  0.458594  1
  Sr  Sr2  1  0.000000  0.500000  0.541406  1
  Sr  Sr3  1  0.500000  0.000000  0.344691  1
  Sr  Sr4  1  -0.000000  0.500000  0.655309  1
  Mn  Mn5  1  -0.000000  0.500000  0.404415  1
  Mn  Mn6  1  0.500000  0.000000  0.595585  1
  Cl  Cl7  1  0.000000  0.500000  0.306759  1
  Cl  Cl8  1  0.500000  -0.000000  0.693241  1
  O  O9  1  0.500000  0.500000  0.395164  1
  O  O10  1  -0.000000  0.000000  0.395164  1
  O  O11  1  -0.000000  0.000000  0.604836  1
  O  O12  1  0.500000  0.500000  0.604836  1
  O  O13  1  -0.000000  0.500000  0.466393  1
  O  O14  1  0.500000  0.000000  0.533607  1
