# generated using pymatgen
data_ReSe2
_symmetry_space_group_name_H-M   'P 1'
_cell_length_a   6.67635674
_cell_length_b   6.79580173
_cell_length_c   23.79587800
_cell_angle_alpha   90.00000000
_cell_angle_beta   90.00000000
_cell_angle_gamma   61.13865416
_symmetry_Int_Tables_number   1
_chemical_formula_structural   ReSe2
_chemical_formula_sum   'Re4 Se8'
_cell_volume   945.54485092
_cell_formula_units_Z   4
loop_
 _symmetry_equiv_pos_site_id
 _symmetry_equiv_pos_as_xyz
  1  'x, y, z'
loop_
 _atom_site_type_symbol
 _atom_site_label
 _atom_site_symmetry_multiplicity
 _atom_site_fract_x
 _atom_site_fract_y
 _atom_site_fract_z
 _atom_site_occupancy
  Re  Re1  1  0.202197  0.730751  0.502650  1
  Re  Re2  1  0.336700  0.095802  0.497350  1
  Re  Re3  1  0.781484  0.704399  0.500857  1
  Re  Re4  1  0.757413  0.122154  0.499143  1
  Se  Se5  1  0.913421  0.856392  0.580037  1
  Se  Se6  1  0.625476  0.970162  0.419963  1
  Se  Se7  1  0.453746  0.807390  0.570916  1
  Se  Se8  1  0.085152  0.019163  0.429084  1
  Se  Se9  1  0.124826  0.477185  0.439309  1
  Se  Se10  1  0.414071  0.349369  0.560691  1
  Se  Se11  1  0.585402  0.509910  0.446907  1
  Se  Se12  1  0.953495  0.316644  0.553093  1
