# generated using pymatgen
data_PbIF
_symmetry_space_group_name_H-M   'P 1'
_cell_length_a   4.19405268
_cell_length_b   4.19405268
_cell_length_c   26.20881600
_cell_angle_alpha   90.00000000
_cell_angle_beta   90.00000000
_cell_angle_gamma   90.00000000
_symmetry_Int_Tables_number   1
_chemical_formula_structural   PbIF
_chemical_formula_sum   'Pb2 I2 F2'
_cell_volume   461.01511465
_cell_formula_units_Z   2
loop_
 _symmetry_equiv_pos_site_id
 _symmetry_equiv_pos_as_xyz
  1  'x, y, z'
loop_
 _atom_site_type_symbol
 _atom_site_label
 _atom_site_symmetry_multiplicity
 _atom_site_fract_x
 _atom_site_fract_y
 _atom_site_fract_z
 _atom_site_occupancy
  Pb  Pb1  1  0.500000  0.000000  0.556574  1
  Pb  Pb2  1  0.000000  0.500000  0.443426  1
  I  I3  1  0.000000  0.500000  0.618326  1
  I  I4  1  0.500000  0.000000  0.381674  1
  F  F5  1  0.000000  0.000000  0.500000  1
  F  F6  1  0.500000  0.500000  0.500000  1
