# generated using pymatgen
data_Li5NiOF5
_symmetry_space_group_name_H-M   'P 1'
_cell_length_a   3.29373443
_cell_length_b   3.29048514
_cell_length_c   27.64265707
_cell_angle_alpha   89.94682029
_cell_angle_beta   90.00000000
_cell_angle_gamma   120.03265983
_symmetry_Int_Tables_number   1
_chemical_formula_structural   Li5NiOF5
_chemical_formula_sum   'Li5 Ni1 O1 F5'
_cell_volume   259.36756256
_cell_formula_units_Z   1
loop_
 _symmetry_equiv_pos_site_id
 _symmetry_equiv_pos_as_xyz
  1  'x, y, z'
loop_
 _atom_site_type_symbol
 _atom_site_label
 _atom_site_symmetry_multiplicity
 _atom_site_fract_x
 _atom_site_fract_y
 _atom_site_fract_z
 _atom_site_occupancy
  Li  Li1  1  0.332670  0.665338  0.386946  1
  Li  Li2  1  0.331828  0.663656  0.534756  1
  Li  Li3  1  0.665955  0.331911  0.461217  1
  Li  Li4  1  0.666237  0.332474  0.314728  1
  Li  Li5  1  0.664774  0.329548  0.609145  1
  Ni  Ni6  1  0.330687  0.661375  0.697980  1
  O  O7  1  0.664433  0.328867  0.692234  1
  F  F8  1  0.332391  0.664783  0.460857  1
  F  F9  1  0.331243  0.662488  0.608229  1
  F  F10  1  0.332743  0.665486  0.311964  1
  F  F11  1  0.666280  0.332560  0.387230  1
  F  F12  1  0.665436  0.330872  0.534711  1
