# generated using pymatgen
data_Sb2O3
_symmetry_space_group_name_H-M   'P 1'
_cell_length_a   3.36088580
_cell_length_b   15.62807267
_cell_length_c   24.81064900
_cell_angle_alpha   90.00000000
_cell_angle_beta   90.00000000
_cell_angle_gamma   90.00000000
_symmetry_Int_Tables_number   1
_chemical_formula_structural   Sb2O3
_chemical_formula_sum   'Sb8 O12'
_cell_volume   1303.15868431
_cell_formula_units_Z   4
loop_
 _symmetry_equiv_pos_site_id
 _symmetry_equiv_pos_as_xyz
  1  'x, y, z'
loop_
 _atom_site_type_symbol
 _atom_site_label
 _atom_site_symmetry_multiplicity
 _atom_site_fract_x
 _atom_site_fract_y
 _atom_site_fract_z
 _atom_site_occupancy
  Sb  Sb1  1  -0.000000  0.928319  0.572905  1
  Sb  Sb2  1  -0.000000  0.071681  0.427095  1
  Sb  Sb3  1  0.000000  0.571681  0.572905  1
  Sb  Sb4  1  -0.000000  0.428319  0.427095  1
  Sb  Sb5  1  0.500000  0.374571  0.548450  1
  Sb  Sb6  1  0.500000  0.625429  0.451550  1
  Sb  Sb7  1  0.500000  0.874571  0.451550  1
  Sb  Sb8  1  0.500000  0.125429  0.548450  1
  O  O9  1  0.500000  0.500000  0.500000  1
  O  O10  1  0.500000  -0.000000  0.500000  1
  O  O11  1  -0.000000  0.142431  0.498864  1
  O  O12  1  -0.000000  0.857569  0.501136  1
  O  O13  1  -0.000000  0.642431  0.501136  1
  O  O14  1  -0.000000  0.357569  0.498864  1
  O  O15  1  0.500000  0.137838  0.408043  1
  O  O16  1  0.500000  0.862162  0.591957  1
  O  O17  1  0.500000  0.637838  0.591957  1
  O  O18  1  0.500000  0.362162  0.408043  1
  O  O19  1  0.500000  0.250000  0.562853  1
  O  O20  1  0.500000  0.750000  0.437147  1
