# generated using pymatgen
data_RbBiF4
_symmetry_space_group_name_H-M   'P 1'
_cell_length_a   3.94083145
_cell_length_b   4.36484415
_cell_length_c   60.33886800
_cell_angle_alpha   90.00000000
_cell_angle_beta   90.00000000
_cell_angle_gamma   64.51452800
_symmetry_Int_Tables_number   1
_chemical_formula_structural   RbBiF4
_chemical_formula_sum   'Rb3 Bi3 F12'
_cell_volume   936.90275517
_cell_formula_units_Z   3
loop_
 _symmetry_equiv_pos_site_id
 _symmetry_equiv_pos_as_xyz
  1  'x, y, z'
loop_
 _atom_site_type_symbol
 _atom_site_label
 _atom_site_symmetry_multiplicity
 _atom_site_fract_x
 _atom_site_fract_y
 _atom_site_fract_z
 _atom_site_occupancy
  Rb  Rb1  1  0.560389  0.699740  0.517246  1
  Rb  Rb2  1  0.783632  0.934888  0.456055  1
  Rb  Rb3  1  0.028329  0.226229  0.395042  1
  Bi  Bi4  1  0.194691  0.404865  0.575015  1
  Bi  Bi5  1  0.403946  0.474289  0.329839  1
  Bi  Bi6  1  0.851017  0.266065  0.635351  1
  F  F7  1  0.607469  0.637750  0.560332  1
  F  F8  1  0.243364  0.320435  0.535600  1
  F  F9  1  0.460089  0.561910  0.472235  1
  F  F10  1  0.738923  0.798197  0.319080  1
  F  F11  1  0.704595  0.853330  0.411257  1
  F  F12  1  0.360343  0.581205  0.363480  1
  F  F13  1  0.042884  0.182527  0.338038  1
  F  F14  1  0.376586  0.212462  0.612940  1
  F  F15  1  0.293157  0.402481  0.654411  1
  F  F16  1  0.610083  0.790968  0.644382  1
  F  F17  1  0.718415  0.553852  0.602701  1
  F  F18  1  0.942558  0.991057  0.576998  1
