# generated using pymatgen
data_Ba(BiO2)4
_symmetry_space_group_name_H-M   'P 1'
_cell_length_a   6.44440040
_cell_length_b   6.44439999
_cell_length_c   24.14262100
_cell_angle_alpha   90.00000000
_cell_angle_beta   90.00000000
_cell_angle_gamma   120.00000213
_symmetry_Int_Tables_number   1
_chemical_formula_structural   Ba(BiO2)4
_chemical_formula_sum   'Ba1 Bi4 O8'
_cell_volume   868.32047747
_cell_formula_units_Z   1
loop_
 _symmetry_equiv_pos_site_id
 _symmetry_equiv_pos_as_xyz
  1  'x, y, z'
loop_
 _atom_site_type_symbol
 _atom_site_label
 _atom_site_symmetry_multiplicity
 _atom_site_fract_x
 _atom_site_fract_y
 _atom_site_fract_z
 _atom_site_occupancy
  Ba  Ba1  1  0.000000  0.000000  0.500000  1
  Bi  Bi2  1  0.333333  0.666667  0.585979  1
  Bi  Bi3  1  0.666667  0.333333  0.585979  1
  Bi  Bi4  1  0.333333  0.666667  0.414021  1
  Bi  Bi5  1  0.666667  0.333333  0.414021  1
  O  O6  1  0.000000  0.317249  0.584993  1
  O  O7  1  0.317249  0.000000  0.584993  1
  O  O8  1  0.682751  0.682751  0.584993  1
  O  O9  1  1.000000  0.682751  0.415007  1
  O  O10  1  0.317249  0.317249  0.415007  1
  O  O11  1  0.682751  0.000000  0.415007  1
  O  O12  1  0.333333  0.666667  0.500000  1
  O  O13  1  0.666667  0.333333  0.500000  1
