# generated using pymatgen
data_KCSN
_symmetry_space_group_name_H-M   'P 1'
_cell_length_a   6.04158800
_cell_length_b   7.52912948
_cell_length_c   25.41391800
_cell_angle_alpha   90.00000000
_cell_angle_beta   90.00000000
_cell_angle_gamma   90.00000000
_symmetry_Int_Tables_number   1
_chemical_formula_structural   KCSN
_chemical_formula_sum   'K4 C4 S4 N4'
_cell_volume   1156.02571782
_cell_formula_units_Z   4
loop_
 _symmetry_equiv_pos_site_id
 _symmetry_equiv_pos_as_xyz
  1  'x, y, z'
loop_
 _atom_site_type_symbol
 _atom_site_label
 _atom_site_symmetry_multiplicity
 _atom_site_fract_x
 _atom_site_fract_y
 _atom_site_fract_z
 _atom_site_occupancy
  K  K1  1  0.250000  -0.000000  0.452572  1
  K  K2  1  0.750000  0.500000  0.547428  1
  K  K3  1  0.750000  -0.000000  0.547428  1
  K  K4  1  0.250000  0.500000  0.452572  1
  C  C5  1  0.232072  0.750000  0.566740  1
  C  C6  1  0.267928  0.250000  0.566740  1
  C  C7  1  0.767928  0.250000  0.433260  1
  C  C8  1  0.732072  0.750000  0.433260  1
  S  S9  1  0.411464  0.750000  0.613995  1
  S  S10  1  0.088536  0.250000  0.613995  1
  S  S11  1  0.911464  0.750000  0.386005  1
  S  S12  1  0.588536  0.250000  0.386005  1
  N  N13  1  0.595608  0.750000  0.467379  1
  N  N14  1  0.904392  0.250000  0.467379  1
  N  N15  1  0.095608  0.750000  0.532621  1
  N  N16  1  0.404392  0.250000  0.532621  1
