# generated using pymatgen
data_Mn3OF6
_symmetry_space_group_name_H-M   'P 1'
_cell_length_a   8.50423297
_cell_length_b   8.50210557
_cell_length_c   22.16786700
_cell_angle_alpha   90.00000000
_cell_angle_beta   90.00000000
_cell_angle_gamma   59.45688007
_symmetry_Int_Tables_number   1
_chemical_formula_structural   Mn3OF6
_chemical_formula_sum   'Mn6 O2 F12'
_cell_volume   1380.42636825
_cell_formula_units_Z   2
loop_
 _symmetry_equiv_pos_site_id
 _symmetry_equiv_pos_as_xyz
  1  'x, y, z'
loop_
 _atom_site_type_symbol
 _atom_site_label
 _atom_site_symmetry_multiplicity
 _atom_site_fract_x
 _atom_site_fract_y
 _atom_site_fract_z
 _atom_site_occupancy
  Mn  Mn1  1  0.166017  0.267082  0.503447  1
  Mn  Mn2  1  0.596860  0.986756  0.500468  1
  Mn  Mn3  1  0.731767  0.552604  0.496239  1
  Mn  Mn4  1  0.299789  0.859942  0.503761  1
  Mn  Mn5  1  0.434697  0.425790  0.499532  1
  Mn  Mn6  1  0.865540  0.145464  0.496553  1
  O  O7  1  0.691621  0.372075  0.529777  1
  O  O8  1  0.339936  0.040471  0.470223  1
  F  F9  1  0.630608  0.177141  0.448936  1
  F  F10  1  0.960679  0.480431  0.540612  1
  F  F11  1  0.225083  0.417422  0.454878  1
  F  F12  1  0.754843  0.737115  0.456278  1
  F  F13  1  0.534324  0.784752  0.548055  1
  F  F14  1  0.933038  0.301199  0.449238  1
  F  F15  1  0.098518  0.111347  0.550762  1
  F  F16  1  0.497233  0.627795  0.451945  1
  F  F17  1  0.276714  0.675431  0.543722  1
  F  F18  1  0.806473  0.995125  0.545122  1
  F  F19  1  0.070877  0.932116  0.459388  1
  F  F20  1  0.400949  0.235405  0.551064  1
