# generated using pymatgen
data_La(BiO2)2
_symmetry_space_group_name_H-M   'P 1'
_cell_length_a   4.01334260
_cell_length_b   4.01334259
_cell_length_c   26.08801184
_cell_angle_alpha   90.00000000
_cell_angle_beta   90.00000000
_cell_angle_gamma   60.00000814
_symmetry_Int_Tables_number   1
_chemical_formula_structural   La(BiO2)2
_chemical_formula_sum   'La1 Bi2 O4'
_cell_volume   363.90172881
_cell_formula_units_Z   1
loop_
 _symmetry_equiv_pos_site_id
 _symmetry_equiv_pos_as_xyz
  1  'x, y, z'
loop_
 _atom_site_type_symbol
 _atom_site_label
 _atom_site_symmetry_multiplicity
 _atom_site_fract_x
 _atom_site_fract_y
 _atom_site_fract_z
 _atom_site_occupancy
  La  La1  1  0.000000  -0.000000  0.500000  1
  Bi  Bi2  1  0.666667  0.666667  0.381987  1
  Bi  Bi3  1  0.333333  0.333333  0.618013  1
  O  O4  1  0.666667  0.666667  0.464378  1
  O  O5  1  -0.000000  -0.000000  0.601414  1
  O  O6  1  0.333333  0.333333  0.535622  1
  O  O7  1  -0.000000  -0.000000  0.398586  1
