# generated using pymatgen
data_HgSO4
_symmetry_space_group_name_H-M   'P 1'
_cell_length_a   5.01689666
_cell_length_b   6.39965633
_cell_length_c   23.59867446
_cell_angle_alpha   90.00000000
_cell_angle_beta   90.00000000
_cell_angle_gamma   90.00000000
_symmetry_Int_Tables_number   1
_chemical_formula_structural   HgSO4
_chemical_formula_sum   'Hg2 S2 O8'
_cell_volume   757.66882309
_cell_formula_units_Z   2
loop_
 _symmetry_equiv_pos_site_id
 _symmetry_equiv_pos_as_xyz
  1  'x, y, z'
loop_
 _atom_site_type_symbol
 _atom_site_label
 _atom_site_symmetry_multiplicity
 _atom_site_fract_x
 _atom_site_fract_y
 _atom_site_fract_z
 _atom_site_occupancy
  Hg  Hg1  1  0.712155  0.500000  0.552696  1
  Hg  Hg2  1  0.212155  0.000000  0.447304  1
  S  S3  1  0.249253  0.500000  0.456619  1
  S  S4  1  0.749253  0.000000  0.543381  1
  O  O5  1  0.633606  0.817608  0.575558  1
  O  O6  1  0.133606  0.682392  0.424442  1
  O  O7  1  0.133606  0.317608  0.424442  1
  O  O8  1  0.633606  0.182392  0.575558  1
  O  O9  1  0.658394  0.000000  0.483455  1
  O  O10  1  0.158394  0.500000  0.516545  1
  O  O11  1  0.040885  0.000000  0.544958  1
  O  O12  1  0.540885  0.500000  0.455042  1
