# generated using pymatgen
data_Mg6VC
_symmetry_space_group_name_H-M   'P 1'
_cell_length_a   3.02060464
_cell_length_b   8.44113196
_cell_length_c   24.88415400
_cell_angle_alpha   90.00000000
_cell_angle_beta   90.00000000
_cell_angle_gamma   90.00000000
_symmetry_Int_Tables_number   1
_chemical_formula_structural   Mg6VC
_chemical_formula_sum   'Mg6 V1 C1'
_cell_volume   634.47929632
_cell_formula_units_Z   1
loop_
 _symmetry_equiv_pos_site_id
 _symmetry_equiv_pos_as_xyz
  1  'x, y, z'
loop_
 _atom_site_type_symbol
 _atom_site_label
 _atom_site_symmetry_multiplicity
 _atom_site_fract_x
 _atom_site_fract_y
 _atom_site_fract_z
 _atom_site_occupancy
  Mg  Mg1  1  0.500000  0.837643  0.570796  1
  Mg  Mg2  1  0.500000  0.162357  0.570796  1
  Mg  Mg3  1  0.500000  0.500000  0.553924  1
  Mg  Mg4  1  0.000000  0.290689  0.466210  1
  Mg  Mg5  1  -0.000000  0.709312  0.466210  1
  Mg  Mg6  1  -0.000000  -0.000000  0.378533  1
  V  V7  1  0.500000  -0.000000  0.472117  1
  C  C8  1  -0.000000  -0.000000  0.521415  1
