# generated using pymatgen
data_MgO2
_symmetry_space_group_name_H-M   'P 1'
_cell_length_a   3.05106481
_cell_length_b   3.42175257
_cell_length_c   21.60711300
_cell_angle_alpha   90.00000000
_cell_angle_beta   90.00000000
_cell_angle_gamma   116.47669641
_symmetry_Int_Tables_number   1
_chemical_formula_structural   MgO2
_chemical_formula_sum   'Mg1 O2'
_cell_volume   201.91844166
_cell_formula_units_Z   1
loop_
 _symmetry_equiv_pos_site_id
 _symmetry_equiv_pos_as_xyz
  1  'x, y, z'
loop_
 _atom_site_type_symbol
 _atom_site_label
 _atom_site_symmetry_multiplicity
 _atom_site_fract_x
 _atom_site_fract_y
 _atom_site_fract_z
 _atom_site_occupancy
  Mg  Mg1  1  -0.000000  0.000000  0.500000  1
  O  O2  1  0.699182  0.398365  0.462724  1
  O  O3  1  0.300818  0.601635  0.537276  1
