# generated using pymatgen
data_TeO3
_symmetry_space_group_name_H-M   'P 1'
_cell_length_a   6.45024390
_cell_length_b   6.45024518
_cell_length_c   23.50275100
_cell_angle_alpha   90.00000000
_cell_angle_beta   90.00000000
_cell_angle_gamma   119.99999855
_symmetry_Int_Tables_number   1
_chemical_formula_structural   TeO3
_chemical_formula_sum   'Te3 O9'
_cell_volume   846.84065087
_cell_formula_units_Z   3
loop_
 _symmetry_equiv_pos_site_id
 _symmetry_equiv_pos_as_xyz
  1  'x, y, z'
loop_
 _atom_site_type_symbol
 _atom_site_label
 _atom_site_symmetry_multiplicity
 _atom_site_fract_x
 _atom_site_fract_y
 _atom_site_fract_z
 _atom_site_occupancy
  Te  Te1  1  0.332855  -0.000000  0.500295  1
  Te  Te2  1  0.667145  0.667145  0.500295  1
  Te  Te3  1  0.000000  0.332855  0.500295  1
  O  O4  1  0.333333  0.666667  0.488891  1
  O  O5  1  0.666667  0.333333  0.488891  1
  O  O6  1  0.000000  -0.000000  0.520649  1
  O  O7  1  1.000000  0.395803  0.574788  1
  O  O8  1  0.604197  0.604197  0.574788  1
  O  O9  1  0.395803  0.000000  0.574788  1
  O  O10  1  -0.000000  0.276333  0.425441  1
  O  O11  1  0.723667  0.723667  0.425441  1
  O  O12  1  0.276333  0.000000  0.425441  1
