# generated using pymatgen
data_CuHO2
_symmetry_space_group_name_H-M   'P 1'
_cell_length_a   2.77007679
_cell_length_b   4.41139370
_cell_length_c   24.06659500
_cell_angle_alpha   90.00000000
_cell_angle_beta   90.00000000
_cell_angle_gamma   90.00000000
_symmetry_Int_Tables_number   1
_chemical_formula_structural   CuHO2
_chemical_formula_sum   'Cu2 H2 O4'
_cell_volume   294.09136739
_cell_formula_units_Z   2
loop_
 _symmetry_equiv_pos_site_id
 _symmetry_equiv_pos_as_xyz
  1  'x, y, z'
loop_
 _atom_site_type_symbol
 _atom_site_label
 _atom_site_symmetry_multiplicity
 _atom_site_fract_x
 _atom_site_fract_y
 _atom_site_fract_z
 _atom_site_occupancy
  Cu  Cu1  1  0.500000  0.782796  0.557454  1
  Cu  Cu2  1  0.000000  0.282796  0.442546  1
  H  H3  1  -0.000000  0.328815  0.564644  1
  H  H4  1  0.500000  0.828815  0.435356  1
  O  O5  1  0.500000  0.041884  0.415750  1
  O  O6  1  -0.000000  0.541884  0.584250  1
  O  O7  1  0.500000  0.532896  0.464113  1
  O  O8  1  -0.000000  0.032896  0.535887  1
