# generated using pymatgen
data_Te2SO7
_symmetry_space_group_name_H-M   'P 1'
_cell_length_a   4.56208848
_cell_length_b   9.05777089
_cell_length_c   28.85277085
_cell_angle_alpha   90.00000000
_cell_angle_beta   90.00000000
_cell_angle_gamma   90.00000000
_symmetry_Int_Tables_number   1
_chemical_formula_structural   Te2SO7
_chemical_formula_sum   'Te4 S2 O14'
_cell_volume   1192.26435993
_cell_formula_units_Z   2
loop_
 _symmetry_equiv_pos_site_id
 _symmetry_equiv_pos_as_xyz
  1  'x, y, z'
loop_
 _atom_site_type_symbol
 _atom_site_label
 _atom_site_symmetry_multiplicity
 _atom_site_fract_x
 _atom_site_fract_y
 _atom_site_fract_z
 _atom_site_occupancy
  Te  Te1  1  0.739736  0.693762  0.455862  1
  Te  Te2  1  0.239736  0.806238  0.544138  1
  Te  Te3  1  0.239736  0.193762  0.544138  1
  Te  Te4  1  0.739736  0.306238  0.455862  1
  S  S5  1  0.177954  0.500000  0.384618  1
  S  S6  1  0.677955  0.000000  0.615382  1
  O  O7  1  0.295830  0.500000  0.339198  1
  O  O8  1  0.795830  0.000000  0.660802  1
  O  O9  1  0.111406  0.771752  0.476453  1
  O  O10  1  0.611406  0.728248  0.523547  1
  O  O11  1  0.611406  0.271752  0.523547  1
  O  O12  1  0.111406  0.228248  0.476453  1
  O  O13  1  0.989722  0.364654  0.393457  1
  O  O14  1  0.489722  0.135346  0.606543  1
  O  O15  1  0.489722  0.864654  0.606543  1
  O  O16  1  0.989722  0.635346  0.393457  1
  O  O17  1  0.906751  0.000000  0.577145  1
  O  O18  1  0.406751  0.500000  0.422855  1
  O  O19  1  0.349037  0.000000  0.519645  1
  O  O20  1  0.849037  0.500000  0.480355  1
