# generated using pymatgen
data_Li3Fe3(OF)4
_symmetry_space_group_name_H-M   'P 1'
_cell_length_a   3.04746926
_cell_length_b   5.03413511
_cell_length_c   28.48010500
_cell_angle_alpha   90.00000000
_cell_angle_beta   90.00000000
_cell_angle_gamma   90.00000000
_symmetry_Int_Tables_number   1
_chemical_formula_structural   Li3Fe3(OF)4
_chemical_formula_sum   'Li3 Fe3 O4 F4'
_cell_volume   436.92388536
_cell_formula_units_Z   1
loop_
 _symmetry_equiv_pos_site_id
 _symmetry_equiv_pos_as_xyz
  1  'x, y, z'
loop_
 _atom_site_type_symbol
 _atom_site_label
 _atom_site_symmetry_multiplicity
 _atom_site_fract_x
 _atom_site_fract_y
 _atom_site_fract_z
 _atom_site_occupancy
  Li  Li1  1  -0.000000  0.893483  0.626965  1
  Li  Li2  1  -0.000000  0.349045  0.372042  1
  Li  Li3  1  0.500000  0.883374  0.523874  1
  Fe  Fe4  1  -0.000000  0.424396  0.488589  1
  Fe  Fe5  1  0.500000  0.466553  0.582815  1
  Fe  Fe6  1  0.500000  0.927306  0.417323  1
  O  O7  1  -0.000000  0.147287  0.439275  1
  O  O8  1  0.500000  0.252971  0.526475  1
  O  O9  1  0.500000  0.659567  0.467320  1
  O  O10  1  -0.000000  0.680662  0.557045  1
  F  F11  1  0.500000  0.157580  0.359615  1
  F  F12  1  -0.000000  0.252989  0.614880  1
  F  F13  1  -0.000000  0.713891  0.384711  1
  F  F14  1  0.500000  0.708018  0.639069  1
