# generated using pymatgen
data_CuH2SO5
_symmetry_space_group_name_H-M   'P 1'
_cell_length_a   4.93511811
_cell_length_b   7.62745101
_cell_length_c   25.43780379
_cell_angle_alpha   90.17052418
_cell_angle_beta   90.17969826
_cell_angle_gamma   67.19679892
_symmetry_Int_Tables_number   1
_chemical_formula_structural   CuH2SO5
_chemical_formula_sum   'Cu2 H4 S2 O10'
_cell_volume   882.69347874
_cell_formula_units_Z   2
loop_
 _symmetry_equiv_pos_site_id
 _symmetry_equiv_pos_as_xyz
  1  'x, y, z'
loop_
 _atom_site_type_symbol
 _atom_site_label
 _atom_site_symmetry_multiplicity
 _atom_site_fract_x
 _atom_site_fract_y
 _atom_site_fract_z
 _atom_site_occupancy
  Cu  Cu1  1  0.500000  0.500000  0.500000  1
  Cu  Cu2  1  -0.000000  0.000000  0.500000  1
  H  H3  1  0.836576  0.301198  0.423568  1
  H  H4  1  0.163424  0.698802  0.576432  1
  H  H5  1  0.034509  0.324889  0.472228  1
  H  H6  1  0.965491  0.675111  0.527772  1
  S  S7  1  0.398037  0.193681  0.555461  1
  S  S8  1  0.601963  0.806319  0.444539  1
  O  O9  1  0.694021  0.966292  0.454531  1
  O  O10  1  0.305979  0.033708  0.545469  1
  O  O11  1  0.273808  0.881594  0.441889  1
  O  O12  1  0.726192  0.118406  0.558111  1
  O  O13  1  0.688732  0.679500  0.494628  1
  O  O14  1  0.311268  0.320500  0.505372  1
  O  O15  1  0.730808  0.693685  0.399165  1
  O  O16  1  0.269192  0.306315  0.600835  1
  O  O17  1  0.151033  0.694969  0.538126  1
  O  O18  1  0.848967  0.305031  0.461874  1
