# generated using pymatgen
data_Sr2FeSO3
_symmetry_space_group_name_H-M   'P 1'
_cell_length_a   3.97984585
_cell_length_b   3.97984585
_cell_length_c   31.36543734
_cell_angle_alpha   90.00000000
_cell_angle_beta   90.00000000
_cell_angle_gamma   90.00000000
_symmetry_Int_Tables_number   1
_chemical_formula_structural   Sr2FeSO3
_chemical_formula_sum   'Sr4 Fe2 S2 O6'
_cell_volume   496.80258793
_cell_formula_units_Z   2
loop_
 _symmetry_equiv_pos_site_id
 _symmetry_equiv_pos_as_xyz
  1  'x, y, z'
loop_
 _atom_site_type_symbol
 _atom_site_label
 _atom_site_symmetry_multiplicity
 _atom_site_fract_x
 _atom_site_fract_y
 _atom_site_fract_z
 _atom_site_occupancy
  Sr  Sr1  1  0.500000  0.000000  0.656469  1
  Sr  Sr2  1  -0.000000  0.500000  0.343531  1
  Sr  Sr3  1  0.500000  -0.000000  0.543185  1
  Sr  Sr4  1  -0.000000  0.500000  0.456815  1
  Fe  Fe5  1  0.000000  0.500000  0.596871  1
  Fe  Fe6  1  0.500000  0.000000  0.403129  1
  S  S7  1  0.000000  0.500000  0.681144  1
  S  S8  1  0.500000  -0.000000  0.318856  1
  O  O9  1  -0.000000  0.000000  0.600645  1
  O  O10  1  0.500000  0.500000  0.600645  1
  O  O11  1  0.500000  0.500000  0.399355  1
  O  O12  1  0.000000  0.000000  0.399355  1
  O  O13  1  0.000000  0.500000  0.535301  1
  O  O14  1  0.500000  0.000000  0.464699  1
