# generated using pymatgen
data_MoAs2O7
_symmetry_space_group_name_H-M   'P 1'
_cell_length_a   4.61078056
_cell_length_b   19.20632146
_cell_length_c   26.02203604
_cell_angle_alpha   90.29917308
_cell_angle_beta   90.00000000
_cell_angle_gamma   90.00000000
_symmetry_Int_Tables_number   1
_chemical_formula_structural   MoAs2O7
_chemical_formula_sum   'Mo4 As8 O28'
_cell_volume   2304.37948544
_cell_formula_units_Z   4
loop_
 _symmetry_equiv_pos_site_id
 _symmetry_equiv_pos_as_xyz
  1  'x, y, z'
loop_
 _atom_site_type_symbol
 _atom_site_label
 _atom_site_symmetry_multiplicity
 _atom_site_fract_x
 _atom_site_fract_y
 _atom_site_fract_z
 _atom_site_occupancy
  Mo  Mo1  1  0.496894  0.459556  0.566591  1
  Mo  Mo2  1  0.996894  0.040444  0.433409  1
  Mo  Mo3  1  0.503106  0.540444  0.433409  1
  Mo  Mo4  1  0.003106  0.959556  0.566591  1
  As  As5  1  0.942425  0.246603  0.456466  1
  As  As6  1  0.442425  0.253397  0.543534  1
  As  As7  1  0.057575  0.753397  0.543534  1
  As  As8  1  0.557575  0.746603  0.456466  1
  As  As9  1  0.040306  0.415940  0.470346  1
  As  As10  1  0.540306  0.084060  0.529654  1
  As  As11  1  0.459694  0.915940  0.470346  1
  As  As12  1  0.959694  0.584060  0.529654  1
  O  O13  1  0.317737  0.246478  0.476739  1
  O  O14  1  0.817737  0.253522  0.523261  1
  O  O15  1  0.682263  0.753522  0.523261  1
  O  O16  1  0.182263  0.746478  0.476739  1
  O  O17  1  0.713638  0.391887  0.587106  1
  O  O18  1  0.213638  0.108113  0.412894  1
  O  O19  1  0.286362  0.608113  0.412894  1
  O  O20  1  0.786362  0.891887  0.587106  1
  O  O21  1  0.246650  0.456344  0.424342  1
  O  O22  1  0.746650  0.043656  0.575658  1
  O  O23  1  0.753350  0.543656  0.575658  1
  O  O24  1  0.253350  0.956344  0.424342  1
  O  O25  1  0.254403  0.893163  0.523143  1
  O  O26  1  0.754403  0.606837  0.476857  1
  O  O27  1  0.745597  0.106837  0.476857  1
  O  O28  1  0.245597  0.393163  0.523143  1
  O  O29  1  0.592400  0.841786  0.441005  1
  O  O30  1  0.092400  0.658214  0.558995  1
  O  O31  1  0.407600  0.158214  0.558995  1
  O  O32  1  0.907600  0.341786  0.441005  1
  O  O33  1  0.740448  0.465377  0.487633  1
  O  O34  1  0.730947  0.522365  0.383113  1
  O  O35  1  0.769053  0.022365  0.383113  1
  O  O36  1  0.269053  0.477635  0.616887  1
  O  O37  1  0.759552  0.965377  0.487633  1
  O  O38  1  0.259552  0.534623  0.512367  1
  O  O39  1  0.240448  0.034623  0.512367  1
  O  O40  1  0.230947  0.977635  0.616887  1
