# generated using pymatgen
data_Ba2Cr3O7
_symmetry_space_group_name_H-M   'P 1'
_cell_length_a   3.78006577
_cell_length_b   3.81239422
_cell_length_c   29.45145000
_cell_angle_alpha   90.00000000
_cell_angle_beta   90.00000000
_cell_angle_gamma   90.01439043
_symmetry_Int_Tables_number   1
_chemical_formula_structural   Ba2Cr3O7
_chemical_formula_sum   'Ba2 Cr3 O7'
_cell_volume   424.42780334
_cell_formula_units_Z   1
loop_
 _symmetry_equiv_pos_site_id
 _symmetry_equiv_pos_as_xyz
  1  'x, y, z'
loop_
 _atom_site_type_symbol
 _atom_site_label
 _atom_site_symmetry_multiplicity
 _atom_site_fract_x
 _atom_site_fract_y
 _atom_site_fract_z
 _atom_site_occupancy
  Ba  Ba1  1  0.505513  0.500476  0.585048  1
  Ba  Ba2  1  0.507272  0.500900  0.415040  1
  Cr  Cr3  1  0.004486  0.000620  0.660578  1
  Cr  Cr4  1  0.006056  0.001247  0.339556  1
  Cr  Cr5  1  0.997429  0.996975  0.499963  1
  O  O6  1  0.980675  0.499264  0.499894  1
  O  O7  1  0.504418  0.000581  0.655628  1
  O  O8  1  0.505956  0.001312  0.344277  1
  O  O9  1  0.004261  0.500628  0.656895  1
  O  O10  1  0.005766  0.501298  0.343263  1
  O  O11  1  0.006350  0.001405  0.564835  1
  O  O12  1  0.008530  0.001517  0.435022  1
