# generated using pymatgen
data_BaY3Cl11
_symmetry_space_group_name_H-M   'P 1'
_cell_length_a   5.27050859
_cell_length_b   10.20061087
_cell_length_c   61.77525091
_cell_angle_alpha   90.00000000
_cell_angle_beta   90.00000000
_cell_angle_gamma   90.00000000
_symmetry_Int_Tables_number   1
_chemical_formula_structural   BaY3Cl11
_chemical_formula_sum   'Ba2 Y6 Cl22'
_cell_volume   3321.18619514
_cell_formula_units_Z   2
loop_
 _symmetry_equiv_pos_site_id
 _symmetry_equiv_pos_as_xyz
  1  'x, y, z'
loop_
 _atom_site_type_symbol
 _atom_site_label
 _atom_site_symmetry_multiplicity
 _atom_site_fract_x
 _atom_site_fract_y
 _atom_site_fract_z
 _atom_site_occupancy
  Ba  Ba1  1  0.000000  0.250000  0.343652  1
  Ba  Ba2  1  -0.000000  0.750000  0.656348  1
  Y  Y3  1  0.000000  0.498997  0.581803  1
  Y  Y4  1  0.000000  0.001003  0.581803  1
  Y  Y5  1  0.000000  0.500000  0.500000  1
  Y  Y6  1  0.000000  -0.000000  0.500000  1
  Y  Y7  1  0.000000  0.501003  0.418197  1
  Y  Y8  1  0.000000  0.998997  0.418197  1
  Cl  Cl9  1  0.500000  0.250000  0.321593  1
  Cl  Cl10  1  0.000000  0.540541  0.623844  1
  Cl  Cl11  1  -0.000000  0.959459  0.623844  1
  Cl  Cl12  1  -0.000000  0.250000  0.593417  1
  Cl  Cl13  1  0.500000  0.505929  0.581203  1
  Cl  Cl14  1  0.500000  0.994071  0.581203  1
  Cl  Cl15  1  -0.000000  0.750000  0.571064  1
  Cl  Cl16  1  0.000000  0.423885  0.540832  1
  Cl  Cl17  1  -0.000000  0.076115  0.540832  1
  Cl  Cl18  1  -0.000000  0.750000  0.512523  1
  Cl  Cl19  1  0.500000  0.500000  0.500000  1
  Cl  Cl20  1  0.500000  -0.000000  0.500000  1
  Cl  Cl21  1  -0.000000  0.250000  0.487477  1
  Cl  Cl22  1  0.000000  0.576115  0.459168  1
  Cl  Cl23  1  0.000000  0.923885  0.459168  1
  Cl  Cl24  1  -0.000000  0.250000  0.428936  1
  Cl  Cl25  1  0.500000  0.494071  0.418797  1
  Cl  Cl26  1  0.500000  0.005929  0.418797  1
  Cl  Cl27  1  -0.000000  0.750000  0.406583  1
  Cl  Cl28  1  0.000000  0.459459  0.376156  1
  Cl  Cl29  1  0.000000  0.040541  0.376156  1
  Cl  Cl30  1  0.500000  0.750000  0.678407  1
