# generated using pymatgen
data_Tl2Cu3(SeO3)6
_symmetry_space_group_name_H-M   'P 1'
_cell_length_a   4.80400037
_cell_length_b   9.59174695
_cell_length_c   27.98365700
_cell_angle_alpha   90.00000000
_cell_angle_beta   90.00000000
_cell_angle_gamma   100.63319647
_symmetry_Int_Tables_number   1
_chemical_formula_structural   Tl2Cu3(SeO3)6
_chemical_formula_sum   'Tl2 Cu3 Se6 O18'
_cell_volume   1267.31040731
_cell_formula_units_Z   1
loop_
 _symmetry_equiv_pos_site_id
 _symmetry_equiv_pos_as_xyz
  1  'x, y, z'
loop_
 _atom_site_type_symbol
 _atom_site_label
 _atom_site_symmetry_multiplicity
 _atom_site_fract_x
 _atom_site_fract_y
 _atom_site_fract_z
 _atom_site_occupancy
  Tl  Tl1  1  0.887710  0.938860  0.604056  1
  Tl  Tl2  1  0.705014  0.548644  0.395944  1
  Cu  Cu3  1  0.077399  0.304620  0.470930  1
  Cu  Cu4  1  0.515325  0.182883  0.529070  1
  Cu  Cu5  1  0.296362  0.743752  0.500000  1
  Se  Se6  1  0.685198  0.517495  0.515005  1
  Se  Se7  1  0.331663  0.800656  0.380656  1
  Se  Se8  1  0.261061  0.686847  0.619344  1
  Se  Se9  1  0.030936  0.263243  0.610440  1
  Se  Se10  1  0.561788  0.224260  0.389560  1
  Se  Se11  1  0.907526  0.970008  0.484995  1
  O  O12  1  0.405453  0.371688  0.514881  1
  O  O13  1  0.798492  0.142919  0.642732  1
  O  O14  1  0.036628  0.856393  0.525118  1
  O  O15  1  0.289126  0.846110  0.439795  1
  O  O16  1  0.187271  0.115815  0.485119  1
  O  O17  1  0.794232  0.344584  0.357268  1
  O  O18  1  0.370067  0.349792  0.410357  1
  O  O19  1  0.916272  0.477947  0.469949  1
  O  O20  1  0.556096  0.631111  0.474882  1
  O  O21  1  0.840512  0.300430  0.560691  1
  O  O22  1  0.914290  0.715710  0.623470  1
  O  O23  1  0.752212  0.187074  0.439309  1
  O  O24  1  0.417434  0.863188  0.623405  1
  O  O25  1  0.678434  0.771793  0.376530  1
  O  O26  1  0.175290  0.624315  0.376595  1
  O  O27  1  0.303598  0.641393  0.560205  1
  O  O28  1  0.222657  0.137712  0.589643  1
  O  O29  1  0.676452  0.009556  0.530051  1
