# generated using pymatgen
data_LiMnF3
_symmetry_space_group_name_H-M   'P 1'
_cell_length_a   5.45759505
_cell_length_b   5.45725968
_cell_length_c   23.50382300
_cell_angle_alpha   90.00000000
_cell_angle_beta   90.00000000
_cell_angle_gamma   120.00267650
_symmetry_Int_Tables_number   1
_chemical_formula_structural   LiMnF3
_chemical_formula_sum   'Li2 Mn2 F6'
_cell_volume   606.22431835
_cell_formula_units_Z   2
loop_
 _symmetry_equiv_pos_site_id
 _symmetry_equiv_pos_as_xyz
  1  'x, y, z'
loop_
 _atom_site_type_symbol
 _atom_site_label
 _atom_site_symmetry_multiplicity
 _atom_site_fract_x
 _atom_site_fract_y
 _atom_site_fract_z
 _atom_site_occupancy
  Li  Li1  1  0.666113  0.333225  0.434558  1
  Li  Li2  1  0.666055  0.333191  0.565388  1
  Mn  Mn3  1  0.999414  0.999905  0.499986  1
  Mn  Mn4  1  0.332740  0.666551  0.499998  1
  F  F5  1  0.666107  0.999966  0.547913  1
  F  F6  1  0.999346  0.333253  0.452095  1
  F  F7  1  0.332807  0.000008  0.452101  1
  F  F8  1  0.332761  0.333190  0.547938  1
  F  F9  1  0.999316  0.666467  0.547912  1
  F  F10  1  0.666053  0.666419  0.452110  1
