# generated using pymatgen
data_GeAs2
_symmetry_space_group_name_H-M   'P 1'
_cell_length_a   3.76143336
_cell_length_b   10.56315758
_cell_length_c   26.14977500
_cell_angle_alpha   90.00000000
_cell_angle_beta   90.00000000
_cell_angle_gamma   90.00000000
_symmetry_Int_Tables_number   1
_chemical_formula_structural   GeAs2
_chemical_formula_sum   'Ge4 As8'
_cell_volume   1038.99889818
_cell_formula_units_Z   4
loop_
 _symmetry_equiv_pos_site_id
 _symmetry_equiv_pos_as_xyz
  1  'x, y, z'
loop_
 _atom_site_type_symbol
 _atom_site_label
 _atom_site_symmetry_multiplicity
 _atom_site_fract_x
 _atom_site_fract_y
 _atom_site_fract_z
 _atom_site_occupancy
  Ge  Ge1  1  0.000000  0.575176  0.559812  1
  Ge  Ge2  1  0.000000  0.075176  0.440188  1
  Ge  Ge3  1  0.500000  0.791940  0.486744  1
  Ge  Ge4  1  0.500000  0.291940  0.513256  1
  As  As5  1  0.000000  0.644720  0.469621  1
  As  As6  1  0.000000  0.144720  0.530379  1
  As  As7  1  -0.000000  0.763157  0.617465  1
  As  As8  1  -0.000000  0.263157  0.382535  1
  As  As9  1  0.500000  0.886740  0.576710  1
  As  As10  1  0.500000  0.386740  0.423290  1
  As  As11  1  0.500000  0.939512  0.412590  1
  As  As12  1  0.500000  0.439512  0.587410  1
