# generated using pymatgen
data_LiRe(OF2)2
_symmetry_space_group_name_H-M   'P 1'
_cell_length_a   4.71715838
_cell_length_b   4.71715838
_cell_length_c   27.12097200
_cell_angle_alpha   90.00000000
_cell_angle_beta   90.00000000
_cell_angle_gamma   90.00000000
_symmetry_Int_Tables_number   1
_chemical_formula_structural   LiRe(OF2)2
_chemical_formula_sum   'Li2 Re2 O4 F8'
_cell_volume   603.48456443
_cell_formula_units_Z   2
loop_
 _symmetry_equiv_pos_site_id
 _symmetry_equiv_pos_as_xyz
  1  'x, y, z'
loop_
 _atom_site_type_symbol
 _atom_site_label
 _atom_site_symmetry_multiplicity
 _atom_site_fract_x
 _atom_site_fract_y
 _atom_site_fract_z
 _atom_site_occupancy
  Li  Li1  1  0.500000  0.000000  0.526783  1
  Li  Li2  1  -0.000000  0.500000  0.473217  1
  Re  Re3  1  0.500000  0.000000  0.408579  1
  Re  Re4  1  -0.000000  0.500000  0.591421  1
  O  O5  1  0.700049  0.799951  0.368929  1
  O  O6  1  0.200049  0.700049  0.631071  1
  O  O7  1  0.299951  0.200049  0.368929  1
  O  O8  1  0.799951  0.299951  0.631071  1
  F  F9  1  0.811090  0.311090  0.531584  1
  F  F10  1  0.311090  0.188910  0.468416  1
  F  F11  1  0.188910  0.688910  0.531584  1
  F  F12  1  0.218681  0.718681  0.420527  1
  F  F13  1  0.781319  0.281319  0.420527  1
  F  F14  1  0.718681  0.781319  0.579473  1
  F  F15  1  0.281319  0.218681  0.579473  1
  F  F16  1  0.688910  0.811090  0.468416  1
