# generated using pymatgen
data_CrCo3O8
_symmetry_space_group_name_H-M   'P 1'
_cell_length_a   5.71858494
_cell_length_b   5.71858458
_cell_length_c   21.82467644
_cell_angle_alpha   90.00000000
_cell_angle_beta   90.00000000
_cell_angle_gamma   60.00000373
_symmetry_Int_Tables_number   1
_chemical_formula_structural   CrCo3O8
_chemical_formula_sum   'Cr1 Co3 O8'
_cell_volume   618.09550785
_cell_formula_units_Z   1
loop_
 _symmetry_equiv_pos_site_id
 _symmetry_equiv_pos_as_xyz
  1  'x, y, z'
loop_
 _atom_site_type_symbol
 _atom_site_label
 _atom_site_symmetry_multiplicity
 _atom_site_fract_x
 _atom_site_fract_y
 _atom_site_fract_z
 _atom_site_occupancy
  Cr  Cr1  1  0.000000  0.000000  0.500000  1
  Co  Co2  1  0.500000  0.500000  0.500000  1
  Co  Co3  1  0.500000  0.000000  0.500000  1
  Co  Co4  1  0.000000  0.500000  0.500000  1
  O  O5  1  0.659505  0.170247  0.456648  1
  O  O6  1  0.170247  0.659505  0.456648  1
  O  O7  1  0.170247  0.170247  0.456648  1
  O  O8  1  0.666667  0.666667  0.456557  1
  O  O9  1  0.333333  0.333333  0.543443  1
  O  O10  1  0.829753  0.829753  0.543352  1
  O  O11  1  0.829753  0.340495  0.543352  1
  O  O12  1  0.340495  0.829753  0.543352  1
