# generated using pymatgen
data_Nb3TeI7
_symmetry_space_group_name_H-M   'P 1'
_cell_length_a   7.69898263
_cell_length_b   7.69898300
_cell_length_c   24.02317673
_cell_angle_alpha   90.00000000
_cell_angle_beta   90.00000000
_cell_angle_gamma   119.99999844
_symmetry_Int_Tables_number   1
_chemical_formula_structural   Nb3TeI7
_chemical_formula_sum   'Nb3 Te1 I7'
_cell_volume   1233.18369952
_cell_formula_units_Z   1
loop_
 _symmetry_equiv_pos_site_id
 _symmetry_equiv_pos_as_xyz
  1  'x, y, z'
loop_
 _atom_site_type_symbol
 _atom_site_label
 _atom_site_symmetry_multiplicity
 _atom_site_fract_x
 _atom_site_fract_y
 _atom_site_fract_z
 _atom_site_occupancy
  Nb  Nb1  1  0.264993  0.132497  0.501559  1
  Nb  Nb2  1  0.867503  0.735007  0.501559  1
  Nb  Nb3  1  0.867503  0.132497  0.501559  1
  Te  Te4  1  0.000000  0.000000  0.588908  1
  I  I5  1  0.666667  0.333333  0.439882  1
  I  I6  1  0.663708  0.831854  0.423536  1
  I  I7  1  0.168146  0.336292  0.423536  1
  I  I8  1  0.168146  0.831854  0.423536  1
  I  I9  1  0.003824  0.501912  0.565308  1
  I  I10  1  0.498088  0.996176  0.565308  1
  I  I11  1  0.498088  0.501912  0.565308  1
