# generated using pymatgen
data_NbOF3
_symmetry_space_group_name_H-M   'P 1'
_cell_length_a   7.72262562
_cell_length_b   8.75267012
_cell_length_c   25.51172400
_cell_angle_alpha   90.00000000
_cell_angle_beta   90.00000000
_cell_angle_gamma   98.99277050
_symmetry_Int_Tables_number   1
_chemical_formula_structural   NbOF3
_chemical_formula_sum   'Nb4 O4 F12'
_cell_volume   1703.23256658
_cell_formula_units_Z   4
loop_
 _symmetry_equiv_pos_site_id
 _symmetry_equiv_pos_as_xyz
  1  'x, y, z'
loop_
 _atom_site_type_symbol
 _atom_site_label
 _atom_site_symmetry_multiplicity
 _atom_site_fract_x
 _atom_site_fract_y
 _atom_site_fract_z
 _atom_site_occupancy
  Nb  Nb1  1  0.034003  0.703204  0.502617  1
  Nb  Nb2  1  0.657336  0.922310  0.463733  1
  Nb  Nb3  1  0.342664  0.077690  0.536267  1
  Nb  Nb4  1  0.965997  0.296796  0.497383  1
  O  O5  1  0.206183  0.865260  0.518532  1
  O  O6  1  0.837148  0.819915  0.484229  1
  O  O7  1  0.162852  0.180085  0.515771  1
  O  O8  1  0.793817  0.134740  0.481468  1
  F  F9  1  0.158658  0.520293  0.513801  1
  F  F10  1  0.478024  0.749978  0.453722  1
  F  F11  1  0.064337  0.685888  0.428845  1
  F  F12  1  0.926097  0.667950  0.569716  1
  F  F13  1  0.297601  0.039581  0.607867  1
  F  F14  1  0.555976  0.939895  0.538901  1
  F  F15  1  0.444024  0.060105  0.461099  1
  F  F16  1  0.702399  0.960419  0.392133  1
  F  F17  1  0.073903  0.332050  0.430284  1
  F  F18  1  0.935663  0.314112  0.571155  1
  F  F19  1  0.521976  0.250022  0.546278  1
  F  F20  1  0.841342  0.479707  0.486199  1
