# generated using pymatgen
data_Zn(SnO2)4
_symmetry_space_group_name_H-M   'P 1'
_cell_length_a   3.29295282
_cell_length_b   7.61811728
_cell_length_c   27.74330100
_cell_angle_alpha   90.00000000
_cell_angle_beta   90.00000000
_cell_angle_gamma   102.47180979
_symmetry_Int_Tables_number   1
_chemical_formula_structural   Zn(SnO2)4
_chemical_formula_sum   'Zn1 Sn4 O8'
_cell_volume   679.54798038
_cell_formula_units_Z   1
loop_
 _symmetry_equiv_pos_site_id
 _symmetry_equiv_pos_as_xyz
  1  'x, y, z'
loop_
 _atom_site_type_symbol
 _atom_site_label
 _atom_site_symmetry_multiplicity
 _atom_site_fract_x
 _atom_site_fract_y
 _atom_site_fract_z
 _atom_site_occupancy
  Zn  Zn1  1  0.026156  0.036671  0.361533  1
  Sn  Sn2  1  0.905303  0.793865  0.527142  1
  Sn  Sn3  1  0.551233  0.083509  0.624539  1
  Sn  Sn4  1  0.576801  0.137920  0.446208  1
  Sn  Sn5  1  0.219999  0.422819  0.541567  1
  O  O6  1  0.659808  0.302638  0.505807  1
  O  O7  1  0.002513  0.988752  0.474845  1
  O  O8  1  0.124545  0.230722  0.595190  1
  O  O9  1  0.465008  0.912915  0.563469  1
  O  O10  1  0.334977  0.653090  0.496766  1
  O  O11  1  0.487765  0.959072  0.379537  1
  O  O12  1  0.789594  0.562030  0.572490  1
  O  O13  1  0.132534  0.249292  0.410909  1
