# generated using pymatgen
data_CeBiS2O
_symmetry_space_group_name_H-M   'P 1'
_cell_length_a   3.99459954
_cell_length_b   3.99459954
_cell_length_c   30.14244821
_cell_angle_alpha   90.00000000
_cell_angle_beta   90.00000000
_cell_angle_gamma   90.00000000
_symmetry_Int_Tables_number   1
_chemical_formula_structural   CeBiS2O
_chemical_formula_sum   'Ce2 Bi2 S4 O2'
_cell_volume   480.97778578
_cell_formula_units_Z   2
loop_
 _symmetry_equiv_pos_site_id
 _symmetry_equiv_pos_as_xyz
  1  'x, y, z'
loop_
 _atom_site_type_symbol
 _atom_site_label
 _atom_site_symmetry_multiplicity
 _atom_site_fract_x
 _atom_site_fract_y
 _atom_site_fract_z
 _atom_site_occupancy
  Ce  Ce1  1  -0.000000  -0.000000  0.458155  1
  Ce  Ce2  1  0.500000  0.500000  0.541556  1
  Bi  Bi3  1  0.000000  -0.000000  0.668206  1
  Bi  Bi4  1  0.500000  0.500000  0.331654  1
  S  S5  1  0.000000  0.000000  0.582895  1
  S  S6  1  0.000000  0.000000  0.329593  1
  S  S7  1  0.500000  0.500000  0.417261  1
  S  S8  1  0.500000  0.500000  0.670510  1
  O  O9  1  0.000000  0.500000  0.500084  1
  O  O10  1  0.500000  0.000000  0.500084  1
