# generated using pymatgen
data_AlSiTe3
_symmetry_space_group_name_H-M   'P 1'
_cell_length_a   6.91984822
_cell_length_b   6.91984796
_cell_length_c   23.64095799
_cell_angle_alpha   90.00000000
_cell_angle_beta   90.00000000
_cell_angle_gamma   119.99999645
_symmetry_Int_Tables_number   1
_chemical_formula_structural   AlSiTe3
_chemical_formula_sum   'Al2 Si2 Te6'
_cell_volume   980.36735146
_cell_formula_units_Z   2
loop_
 _symmetry_equiv_pos_site_id
 _symmetry_equiv_pos_as_xyz
  1  'x, y, z'
loop_
 _atom_site_type_symbol
 _atom_site_label
 _atom_site_symmetry_multiplicity
 _atom_site_fract_x
 _atom_site_fract_y
 _atom_site_fract_z
 _atom_site_occupancy
  Al  Al1  1  0.666667  0.333333  0.500267  1
  Al  Al2  1  0.333333  0.666667  0.499733  1
  Si  Si3  1  -0.000000  -0.000000  0.548882  1
  Si  Si4  1  -0.000000  0.000000  0.451118  1
  Te  Te5  1  0.644394  0.643823  0.424286  1
  Te  Te6  1  0.999429  0.355606  0.424286  1
  Te  Te7  1  0.356177  0.000571  0.424286  1
  Te  Te8  1  0.000571  0.644394  0.575714  1
  Te  Te9  1  0.355606  0.356177  0.575714  1
  Te  Te10  1  0.643823  0.999429  0.575714  1
