# generated using pymatgen
data_KH4O2F
_symmetry_space_group_name_H-M   'P 1'
_cell_length_a   3.97115966
_cell_length_b   6.99200056
_cell_length_c   24.23363600
_cell_angle_alpha   90.00000000
_cell_angle_beta   90.00000000
_cell_angle_gamma   90.00000000
_symmetry_Int_Tables_number   1
_chemical_formula_structural   KH4O2F
_chemical_formula_sum   'K2 H8 O4 F2'
_cell_volume   672.87963268
_cell_formula_units_Z   2
loop_
 _symmetry_equiv_pos_site_id
 _symmetry_equiv_pos_as_xyz
  1  'x, y, z'
loop_
 _atom_site_type_symbol
 _atom_site_label
 _atom_site_symmetry_multiplicity
 _atom_site_fract_x
 _atom_site_fract_y
 _atom_site_fract_z
 _atom_site_occupancy
  K  K1  1  0.500000  0.482055  0.487312  1
  K  K2  1  0.500000  0.982055  0.512688  1
  H  H3  1  0.304163  0.126921  0.403223  1
  H  H4  1  0.695837  0.126921  0.403223  1
  H  H5  1  0.000000  0.343234  0.569622  1
  H  H6  1  0.000000  0.372219  0.636847  1
  H  H7  1  0.304163  0.626921  0.596777  1
  H  H8  1  0.695837  0.626921  0.596777  1
  H  H9  1  0.000000  0.843234  0.430378  1
  H  H10  1  0.000000  0.872219  0.363153  1
  O  O11  1  0.500000  0.209241  0.412003  1
  O  O12  1  0.000000  0.442596  0.602372  1
  O  O13  1  0.500000  0.709241  0.587997  1
  O  O14  1  -0.000000  0.942596  0.397628  1
  F  F15  1  0.000000  0.230213  0.522588  1
  F  F16  1  0.000000  0.730213  0.477412  1
