# generated using pymatgen
data_Sr2TaCu2O7
_symmetry_space_group_name_H-M   'P 1'
_cell_length_a   5.45731919
_cell_length_b   5.42675738
_cell_length_c   29.14433011
_cell_angle_alpha   90.02699880
_cell_angle_beta   89.99783123
_cell_angle_gamma   90.53159224
_symmetry_Int_Tables_number   1
_chemical_formula_structural   Sr2TaCu2O7
_chemical_formula_sum   'Sr4 Ta2 Cu4 O14'
_cell_volume   863.08803789
_cell_formula_units_Z   2
loop_
 _symmetry_equiv_pos_site_id
 _symmetry_equiv_pos_as_xyz
  1  'x, y, z'
loop_
 _atom_site_type_symbol
 _atom_site_label
 _atom_site_symmetry_multiplicity
 _atom_site_fract_x
 _atom_site_fract_y
 _atom_site_fract_z
 _atom_site_occupancy
  Sr  Sr1  1  0.519836  0.525495  0.605744  1
  Sr  Sr2  1  0.984255  0.024917  0.394301  1
  Sr  Sr3  1  0.984282  0.025731  0.605702  1
  Sr  Sr4  1  0.519810  0.524760  0.394258  1
  Ta  Ta5  1  0.059914  0.581500  0.500004  1
  Ta  Ta6  1  0.446423  0.082856  0.499995  1
  Cu  Cu7  1  0.497459  0.021923  0.665201  1
  Cu  Cu8  1  0.006506  0.521445  0.334786  1
  Cu  Cu9  1  0.006495  0.522477  0.665206  1
  Cu  Cu10  1  0.497466  0.020902  0.334790  1
  O  O11  1  0.384463  0.439283  0.500008  1
  O  O12  1  0.119835  0.939174  0.500006  1
  O  O13  1  0.751305  0.272050  0.655011  1
  O  O14  1  0.752654  0.771072  0.343712  1
  O  O15  1  0.752659  0.772121  0.656285  1
  O  O16  1  0.751318  0.271027  0.344997  1
  O  O17  1  0.250811  0.772678  0.649098  1
  O  O18  1  0.253032  0.271703  0.349349  1
  O  O19  1  0.253041  0.272682  0.650667  1
  O  O20  1  0.250809  0.771709  0.350895  1
  O  O21  1  0.912275  0.469002  0.551560  1
  O  O22  1  0.590526  0.969008  0.448378  1
  O  O23  1  0.590610  0.969197  0.551602  1
  O  O24  1  0.912312  0.468825  0.448446  1
