# generated using pymatgen
data_SrTiSi2O7
_symmetry_space_group_name_H-M   'P 1'
_cell_length_a   5.48091610
_cell_length_b   7.12513615
_cell_length_c   25.01257476
_cell_angle_alpha   90.00000000
_cell_angle_beta   90.00000000
_cell_angle_gamma   90.00000000
_symmetry_Int_Tables_number   1
_chemical_formula_structural   SrTiSi2O7
_chemical_formula_sum   'Sr2 Ti2 Si4 O14'
_cell_volume   976.79790895
_cell_formula_units_Z   2
loop_
 _symmetry_equiv_pos_site_id
 _symmetry_equiv_pos_as_xyz
  1  'x, y, z'
loop_
 _atom_site_type_symbol
 _atom_site_label
 _atom_site_symmetry_multiplicity
 _atom_site_fract_x
 _atom_site_fract_y
 _atom_site_fract_z
 _atom_site_occupancy
  Sr  Sr1  1  0.000000  0.750000  0.594899  1
  Sr  Sr2  1  0.000000  0.250000  0.405101  1
  Ti  Ti3  1  0.000000  0.250000  0.568713  1
  Ti  Ti4  1  0.000000  0.750000  0.431287  1
  Si  Si5  1  0.500000  0.020646  0.435549  1
  Si  Si6  1  0.500000  0.479354  0.435549  1
  Si  Si7  1  0.500000  0.520646  0.564451  1
  Si  Si8  1  0.500000  0.979354  0.564451  1
  O  O9  1  0.500000  0.750000  0.580370  1
  O  O10  1  -0.000000  0.250000  0.500950  1
  O  O11  1  0.755045  0.444434  0.589557  1
  O  O12  1  0.755045  0.055566  0.589557  1
  O  O13  1  0.755045  0.555566  0.410443  1
  O  O14  1  0.500000  0.250000  0.419630  1
  O  O15  1  0.244956  0.555566  0.410443  1
  O  O16  1  0.244956  0.444434  0.589557  1
  O  O17  1  0.500000  0.000000  0.500000  1
  O  O18  1  0.244956  0.944434  0.410443  1
  O  O19  1  0.244956  0.055566  0.589557  1
  O  O20  1  -0.000000  0.750000  0.499050  1
  O  O21  1  0.755045  0.944434  0.410443  1
  O  O22  1  0.500000  0.500000  0.500000  1
