# generated using pymatgen
data_RbBrF4
_symmetry_space_group_name_H-M   'P 1'
_cell_length_a   7.02952774
_cell_length_b   7.02952774
_cell_length_c   22.44673546
_cell_angle_alpha   90.00000000
_cell_angle_beta   90.00000000
_cell_angle_gamma   90.00000000
_symmetry_Int_Tables_number   1
_chemical_formula_structural   RbBrF4
_chemical_formula_sum   'Rb2 Br2 F8'
_cell_volume   1109.18882773
_cell_formula_units_Z   2
loop_
 _symmetry_equiv_pos_site_id
 _symmetry_equiv_pos_as_xyz
  1  'x, y, z'
loop_
 _atom_site_type_symbol
 _atom_site_label
 _atom_site_symmetry_multiplicity
 _atom_site_fract_x
 _atom_site_fract_y
 _atom_site_fract_z
 _atom_site_occupancy
  Rb  Rb1  1  0.500000  0.500000  0.500000  1
  Rb  Rb2  1  -0.000000  0.000000  0.500000  1
  Br  Br3  1  0.500000  0.000000  0.500000  1
  Br  Br4  1  -0.000000  0.500000  0.500000  1
  F  F5  1  0.143065  0.643065  0.558728  1
  F  F6  1  0.143065  0.643065  0.441272  1
  F  F7  1  0.856935  0.356935  0.441272  1
  F  F8  1  0.643065  0.856935  0.441272  1
  F  F9  1  0.856935  0.356935  0.558728  1
  F  F10  1  0.643065  0.856935  0.558728  1
  F  F11  1  0.356935  0.143065  0.558728  1
  F  F12  1  0.356935  0.143065  0.441272  1
