# generated using pymatgen
data_Ba2Ti3O7
_symmetry_space_group_name_H-M   'P 1'
_cell_length_a   3.93457530
_cell_length_b   3.99592153
_cell_length_c   28.14941900
_cell_angle_alpha   90.00000000
_cell_angle_beta   90.00000000
_cell_angle_gamma   89.99047021
_symmetry_Int_Tables_number   1
_chemical_formula_structural   Ba2Ti3O7
_chemical_formula_sum   'Ba2 Ti3 O7'
_cell_volume   442.57231325
_cell_formula_units_Z   1
loop_
 _symmetry_equiv_pos_site_id
 _symmetry_equiv_pos_as_xyz
  1  'x, y, z'
loop_
 _atom_site_type_symbol
 _atom_site_label
 _atom_site_symmetry_multiplicity
 _atom_site_fract_x
 _atom_site_fract_y
 _atom_site_fract_z
 _atom_site_occupancy
  Ba  Ba1  1  0.503337  0.508623  0.575961  1
  Ba  Ba2  1  0.501822  0.508332  0.424046  1
  Ti  Ti3  1  0.009028  0.024510  0.640583  1
  Ti  Ti4  1  0.007277  0.024119  0.359435  1
  Ti  Ti5  1  0.002104  0.007983  0.499998  1
  O  O6  1  0.001552  0.507137  0.500001  1
  O  O7  1  0.495085  0.989757  0.643627  1
  O  O8  1  0.492867  0.989354  0.356357  1
  O  O9  1  0.996556  0.484071  0.644413  1
  O  O10  1  0.994387  0.483653  0.355585  1
  O  O11  1  0.002269  0.005612  0.570804  1
  O  O12  1  0.000606  0.005361  0.429190  1
