# generated using pymatgen
data_GaTe
_symmetry_space_group_name_H-M   'P 1'
_cell_length_a   4.12025067
_cell_length_b   4.12025013
_cell_length_c   25.01927300
_cell_angle_alpha   90.00000000
_cell_angle_beta   90.00000000
_cell_angle_gamma   120.00000444
_symmetry_Int_Tables_number   1
_chemical_formula_structural   GaTe
_chemical_formula_sum   'Ga2 Te2'
_cell_volume   367.83454920
_cell_formula_units_Z   2
loop_
 _symmetry_equiv_pos_site_id
 _symmetry_equiv_pos_as_xyz
  1  'x, y, z'
loop_
 _atom_site_type_symbol
 _atom_site_label
 _atom_site_symmetry_multiplicity
 _atom_site_fract_x
 _atom_site_fract_y
 _atom_site_fract_z
 _atom_site_occupancy
  Ga  Ga1  1  0.666667  0.333333  0.549132  1
  Ga  Ga2  1  0.666667  0.333333  0.450868  1
  Te  Te3  1  -0.000000  0.000000  0.399708  1
  Te  Te4  1  -0.000000  -0.000000  0.600292  1
