# generated using pymatgen
data_LiV2OF5
_symmetry_space_group_name_H-M   'P 1'
_cell_length_a   5.30155510
_cell_length_b   5.34207292
_cell_length_c   23.33555500
_cell_angle_alpha   90.00000000
_cell_angle_beta   90.00000000
_cell_angle_gamma   60.24987800
_symmetry_Int_Tables_number   1
_chemical_formula_structural   LiV2OF5
_chemical_formula_sum   'Li1 V2 O1 F5'
_cell_volume   573.78591805
_cell_formula_units_Z   1
loop_
 _symmetry_equiv_pos_site_id
 _symmetry_equiv_pos_as_xyz
  1  'x, y, z'
loop_
 _atom_site_type_symbol
 _atom_site_label
 _atom_site_symmetry_multiplicity
 _atom_site_fract_x
 _atom_site_fract_y
 _atom_site_fract_z
 _atom_site_occupancy
  Li  Li1  1  0.011162  0.000147  0.448248  1
  V  V2  1  0.647788  0.686240  0.506705  1
  V  V3  1  0.333868  0.314075  0.506693  1
  O  O4  1  0.362252  0.000131  0.462942  1
  F  F5  1  0.640706  0.000162  0.553852  1
  F  F6  1  0.363889  0.628893  0.549505  1
  F  F7  1  0.996131  0.655449  0.461274  1
  F  F8  1  0.651496  0.344842  0.461286  1
  F  F9  1  0.992621  0.371424  0.549494  1
