# generated using pymatgen
data_ZnSnO3
_symmetry_space_group_name_H-M   'P 1'
_cell_length_a   5.45592985
_cell_length_b   5.45592970
_cell_length_c   23.84636400
_cell_angle_alpha   90.00000000
_cell_angle_beta   90.00000000
_cell_angle_gamma   59.99999916
_symmetry_Int_Tables_number   1
_chemical_formula_structural   ZnSnO3
_chemical_formula_sum   'Zn2 Sn2 O6'
_cell_volume   614.73839695
_cell_formula_units_Z   2
loop_
 _symmetry_equiv_pos_site_id
 _symmetry_equiv_pos_as_xyz
  1  'x, y, z'
loop_
 _atom_site_type_symbol
 _atom_site_label
 _atom_site_symmetry_multiplicity
 _atom_site_fract_x
 _atom_site_fract_y
 _atom_site_fract_z
 _atom_site_occupancy
  Zn  Zn1  1  -0.000000  0.000000  0.558917  1
  Zn  Zn2  1  -0.000000  0.000000  0.441083  1
  Sn  Sn3  1  0.666667  0.666667  0.499810  1
  Sn  Sn4  1  0.333333  0.333333  0.500190  1
  O  O5  1  0.350870  0.649654  0.547244  1
  O  O6  1  0.999475  0.350870  0.547244  1
  O  O7  1  0.649654  0.999475  0.547244  1
  O  O8  1  0.649130  0.350346  0.452756  1
  O  O9  1  0.350346  0.000525  0.452756  1
  O  O10  1  0.000525  0.649130  0.452756  1
