# generated using pymatgen
data_C
_symmetry_space_group_name_H-M   'P 1'
_cell_length_a   3.54961513
_cell_length_b   3.54961573
_cell_length_c   22.53218794
_cell_angle_alpha   90.00000000
_cell_angle_beta   90.00000000
_cell_angle_gamma   92.41373615
_symmetry_Int_Tables_number   1
_chemical_formula_structural   C
_chemical_formula_sum   C8
_cell_volume   283.64849222
_cell_formula_units_Z   8
loop_
 _symmetry_equiv_pos_site_id
 _symmetry_equiv_pos_as_xyz
  1  'x, y, z'
loop_
 _atom_site_type_symbol
 _atom_site_label
 _atom_site_symmetry_multiplicity
 _atom_site_fract_x
 _atom_site_fract_y
 _atom_site_fract_z
 _atom_site_occupancy
  C  C1  1  0.250000  0.750000  0.531436  1
  C  C2  1  0.609594  0.609594  0.443148  1
  C  C3  1  0.750000  0.250000  0.531436  1
  C  C4  1  0.250000  0.750000  0.468564  1
  C  C5  1  0.750000  0.250000  0.468564  1
  C  C6  1  0.890406  0.890406  0.443148  1
  C  C7  1  0.390406  0.390406  0.556852  1
  C  C8  1  0.109594  0.109594  0.556852  1
