# generated using pymatgen
data_MgSiO3
_symmetry_space_group_name_H-M   'P 1'
_cell_length_a   5.26683061
_cell_length_b   9.09212289
_cell_length_c   30.85220300
_cell_angle_alpha   90.00000000
_cell_angle_beta   90.00000000
_cell_angle_gamma   90.00000000
_symmetry_Int_Tables_number   1
_chemical_formula_structural   MgSiO3
_chemical_formula_sum   'Mg8 Si8 O24'
_cell_volume   1477.40929922
_cell_formula_units_Z   8
loop_
 _symmetry_equiv_pos_site_id
 _symmetry_equiv_pos_as_xyz
  1  'x, y, z'
loop_
 _atom_site_type_symbol
 _atom_site_label
 _atom_site_symmetry_multiplicity
 _atom_site_fract_x
 _atom_site_fract_y
 _atom_site_fract_z
 _atom_site_occupancy
  Mg  Mg1  1  0.149934  0.154565  0.433093  1
  Mg  Mg2  1  0.649934  0.345435  0.433093  1
  Mg  Mg3  1  0.841318  0.510863  0.576923  1
  Mg  Mg4  1  0.850066  0.845435  0.566907  1
  Mg  Mg5  1  0.350066  0.654565  0.566907  1
  Mg  Mg6  1  0.158682  0.489137  0.423077  1
  Mg  Mg7  1  0.658682  0.010863  0.423077  1
  Mg  Mg8  1  0.341318  0.989137  0.576923  1
  Si  Si9  1  0.696353  0.666698  0.477846  1
  Si  Si10  1  0.556999  0.708421  0.644958  1
  Si  Si11  1  0.303647  0.333301  0.522154  1
  Si  Si12  1  0.943001  0.208421  0.355042  1
  Si  Si13  1  0.056999  0.791579  0.644958  1
  Si  Si14  1  0.443001  0.291579  0.355042  1
  Si  Si15  1  0.196353  0.833302  0.477846  1
  Si  Si16  1  0.803647  0.166698  0.522154  1
  O  O17  1  0.033963  0.677711  0.602372  1
  O  O18  1  0.313110  0.339530  0.469261  1
  O  O19  1  0.560192  0.551219  0.618525  1
  O  O20  1  0.113788  0.189652  0.538053  1
  O  O21  1  0.966037  0.322289  0.397628  1
  O  O22  1  0.186890  0.839530  0.530739  1
  O  O23  1  0.676099  0.026605  0.545114  1
  O  O24  1  0.060192  0.948781  0.618525  1
  O  O25  1  0.176099  0.473395  0.545114  1
  O  O26  1  0.386212  0.689652  0.461947  1
  O  O27  1  0.197030  0.243131  0.325977  1
  O  O28  1  0.533963  0.822289  0.602372  1
  O  O29  1  0.613788  0.310348  0.538053  1
  O  O30  1  0.886212  0.810348  0.461947  1
  O  O31  1  0.802970  0.756869  0.674023  1
  O  O32  1  0.323901  0.973395  0.454886  1
  O  O33  1  0.686890  0.660470  0.530739  1
  O  O34  1  0.813110  0.160470  0.469261  1
  O  O35  1  0.939808  0.051219  0.381475  1
  O  O36  1  0.466037  0.177711  0.397628  1
  O  O37  1  0.302970  0.743131  0.674023  1
  O  O38  1  0.697030  0.256869  0.325977  1
  O  O39  1  0.823901  0.526605  0.454886  1
  O  O40  1  0.439808  0.448781  0.381475  1
