# generated using pymatgen
data_LiFe2C2O7
_symmetry_space_group_name_H-M   'P 1'
_cell_length_a   4.92608477
_cell_length_b   4.95279452
_cell_length_c   26.50037000
_cell_angle_alpha   90.00000000
_cell_angle_beta   90.00000000
_cell_angle_gamma   59.63522476
_symmetry_Int_Tables_number   1
_chemical_formula_structural   LiFe2C2O7
_chemical_formula_sum   'Li1 Fe2 C2 O7'
_cell_volume   557.86183716
_cell_formula_units_Z   1
loop_
 _symmetry_equiv_pos_site_id
 _symmetry_equiv_pos_as_xyz
  1  'x, y, z'
loop_
 _atom_site_type_symbol
 _atom_site_label
 _atom_site_symmetry_multiplicity
 _atom_site_fract_x
 _atom_site_fract_y
 _atom_site_fract_z
 _atom_site_occupancy
  Li  Li1  1  0.993903  0.001249  0.394303  1
  Fe  Fe2  1  0.321025  0.333604  0.446811  1
  Fe  Fe3  1  0.340040  0.342846  0.584058  1
  C  C4  1  0.662888  0.668250  0.406186  1
  C  C5  1  0.668972  0.674507  0.608653  1
  O  O6  1  0.410725  0.667255  0.609863  1
  O  O7  1  0.402888  0.936882  0.405531  1
  O  O8  1  0.657238  0.410540  0.407180  1
  O  O9  1  0.356621  0.343440  0.515932  1
  O  O10  1  0.935819  0.416828  0.607227  1
  O  O11  1  0.659899  0.939145  0.609180  1
  O  O12  1  0.931332  0.659507  0.405076  1
