# generated using pymatgen
data_IrBr3
_symmetry_space_group_name_H-M   'P 1'
_cell_length_a   6.40704971
_cell_length_b   6.40704958
_cell_length_c   22.78259700
_cell_angle_alpha   90.00000000
_cell_angle_beta   90.00000000
_cell_angle_gamma   120.00154320
_symmetry_Int_Tables_number   1
_chemical_formula_structural   IrBr3
_chemical_formula_sum   'Ir2 Br6'
_cell_volume   809.92216567
_cell_formula_units_Z   2
loop_
 _symmetry_equiv_pos_site_id
 _symmetry_equiv_pos_as_xyz
  1  'x, y, z'
loop_
 _atom_site_type_symbol
 _atom_site_label
 _atom_site_symmetry_multiplicity
 _atom_site_fract_x
 _atom_site_fract_y
 _atom_site_fract_z
 _atom_site_occupancy
  Ir  Ir1  1  0.166686  0.833314  0.500000  1
  Ir  Ir2  1  0.833314  0.166686  0.500000  1
  Br  Br3  1  0.499963  0.149720  0.438130  1
  Br  Br4  1  0.850280  0.500037  0.561870  1
  Br  Br5  1  0.149759  0.149759  0.561836  1
  Br  Br6  1  0.850241  0.850241  0.438164  1
  Br  Br7  1  0.149720  0.499963  0.438130  1
  Br  Br8  1  0.500037  0.850280  0.561870  1
