# generated using pymatgen
data_Sr2TiCu2O7
_symmetry_space_group_name_H-M   'P 1'
_cell_length_a   5.14760077
_cell_length_b   5.27384096
_cell_length_c   29.58246200
_cell_angle_alpha   90.00000000
_cell_angle_beta   90.00000000
_cell_angle_gamma   90.00583574
_symmetry_Int_Tables_number   1
_chemical_formula_structural   Sr2TiCu2O7
_chemical_formula_sum   'Sr4 Ti2 Cu4 O14'
_cell_volume   803.09366361
_cell_formula_units_Z   2
loop_
 _symmetry_equiv_pos_site_id
 _symmetry_equiv_pos_as_xyz
  1  'x, y, z'
loop_
 _atom_site_type_symbol
 _atom_site_label
 _atom_site_symmetry_multiplicity
 _atom_site_fract_x
 _atom_site_fract_y
 _atom_site_fract_z
 _atom_site_occupancy
  Sr  Sr1  1  0.523321  0.490587  0.409713  1
  Sr  Sr2  1  0.023858  0.009346  0.590301  1
  Sr  Sr3  1  0.023365  0.009305  0.409709  1
  Sr  Sr4  1  0.523836  0.490618  0.590307  1
  Ti  Ti5  1  0.456762  0.929222  0.499933  1
  Ti  Ti6  1  0.956736  0.570452  0.499949  1
  Cu  Cu7  1  0.023355  0.502194  0.338936  1
  Cu  Cu8  1  0.523996  0.997876  0.661077  1
  Cu  Cu9  1  0.523388  0.997865  0.338931  1
  Cu  Cu10  1  0.023971  0.502189  0.661070  1
  O  O11  1  0.589252  0.596020  0.499998  1
  O  O12  1  0.089254  0.903697  0.499994  1
  O  O13  1  0.773379  0.250369  0.350858  1
  O  O14  1  0.273945  0.249637  0.649206  1
  O  O15  1  0.273363  0.249665  0.350806  1
  O  O16  1  0.773961  0.250396  0.649153  1
  O  O17  1  0.273535  0.749952  0.353113  1
  O  O18  1  0.774141  0.750080  0.646939  1
  O  O19  1  0.773512  0.750029  0.353088  1
  O  O20  1  0.274156  0.749980  0.646906  1
  O  O21  1  0.546978  0.042773  0.444994  1
  O  O22  1  0.047334  0.456861  0.555009  1
  O  O23  1  0.047107  0.456812  0.445028  1
  O  O24  1  0.547352  0.043045  0.554982  1
