# generated using pymatgen
data_AsI3
_symmetry_space_group_name_H-M   'P 1'
_cell_length_a   7.18108694
_cell_length_b   7.18108616
_cell_length_c   23.36313015
_cell_angle_alpha   90.00000000
_cell_angle_beta   90.00000000
_cell_angle_gamma   60.00000100
_symmetry_Int_Tables_number   1
_chemical_formula_structural   AsI3
_chemical_formula_sum   'As2 I6'
_cell_volume   1043.37874819
_cell_formula_units_Z   2
loop_
 _symmetry_equiv_pos_site_id
 _symmetry_equiv_pos_as_xyz
  1  'x, y, z'
loop_
 _atom_site_type_symbol
 _atom_site_label
 _atom_site_symmetry_multiplicity
 _atom_site_fract_x
 _atom_site_fract_y
 _atom_site_fract_z
 _atom_site_occupancy
  As  As1  1  0.666667  0.666667  0.489615  1
  As  As2  1  0.333333  0.333333  0.510385  1
  I  I3  1  0.654253  0.003654  0.573425  1
  I  I4  1  0.003654  0.342093  0.573425  1
  I  I5  1  0.342093  0.654253  0.573425  1
  I  I6  1  0.345747  0.996346  0.426575  1
  I  I7  1  0.996346  0.657907  0.426575  1
  I  I8  1  0.657907  0.345747  0.426575  1
