# generated using pymatgen
data_Si3Mo
_symmetry_space_group_name_H-M   'P 1'
_cell_length_a   4.94735971
_cell_length_b   4.94736022
_cell_length_c   20.04370041
_cell_angle_alpha   90.00000000
_cell_angle_beta   90.00000000
_cell_angle_gamma   119.99999664
_symmetry_Int_Tables_number   1
_chemical_formula_structural   Si3Mo
_chemical_formula_sum   'Si3 Mo1'
_cell_volume   424.86951423
_cell_formula_units_Z   1
loop_
 _symmetry_equiv_pos_site_id
 _symmetry_equiv_pos_as_xyz
  1  'x, y, z'
loop_
 _atom_site_type_symbol
 _atom_site_label
 _atom_site_symmetry_multiplicity
 _atom_site_fract_x
 _atom_site_fract_y
 _atom_site_fract_z
 _atom_site_occupancy
  Si  Si1  1  0.499989  -0.000022  0.500000  1
  Si  Si2  1  0.000022  0.500011  0.500000  1
  Si  Si3  1  0.499989  0.500011  0.500000  1
  Mo  Mo4  1  0.000000  0.000000  0.500000  1
