# generated using pymatgen
data_ZrBr
_symmetry_space_group_name_H-M   'P 1'
_cell_length_a   3.53060884
_cell_length_b   3.53060841
_cell_length_c   26.10845122
_cell_angle_alpha   90.00000000
_cell_angle_beta   90.00000000
_cell_angle_gamma   60.00000535
_symmetry_Int_Tables_number   1
_chemical_formula_structural   ZrBr
_chemical_formula_sum   'Zr2 Br2'
_cell_volume   281.84538030
_cell_formula_units_Z   2
loop_
 _symmetry_equiv_pos_site_id
 _symmetry_equiv_pos_as_xyz
  1  'x, y, z'
loop_
 _atom_site_type_symbol
 _atom_site_label
 _atom_site_symmetry_multiplicity
 _atom_site_fract_x
 _atom_site_fract_y
 _atom_site_fract_z
 _atom_site_occupancy
  Zr  Zr1  1  0.666667  0.666667  0.455136  1
  Zr  Zr2  1  0.333333  0.333333  0.544864  1
  Br  Br3  1  -0.000000  -0.000000  0.617787  1
  Br  Br4  1  -0.000000  -0.000000  0.382213  1
