# generated using pymatgen
data_In2S3
_symmetry_space_group_name_H-M   'P 1'
_cell_length_a   6.78078282
_cell_length_b   6.78078382
_cell_length_c   22.24908667
_cell_angle_alpha   90.00000000
_cell_angle_beta   90.00000000
_cell_angle_gamma   60.00000002
_symmetry_Int_Tables_number   1
_chemical_formula_structural   In2S3
_chemical_formula_sum   'In2 S3'
_cell_volume   885.93641542
_cell_formula_units_Z   1
loop_
 _symmetry_equiv_pos_site_id
 _symmetry_equiv_pos_as_xyz
  1  'x, y, z'
loop_
 _atom_site_type_symbol
 _atom_site_label
 _atom_site_symmetry_multiplicity
 _atom_site_fract_x
 _atom_site_fract_y
 _atom_site_fract_z
 _atom_site_occupancy
  In  In1  1  0.666667  0.666667  0.498297  1
  In  In2  1  0.333333  0.333333  0.501703  1
  S  S3  1  1.000000  0.708201  0.500000  1
  S  S4  1  0.708201  0.291799  0.500000  1
  S  S5  1  0.291799  1.000000  0.500000  1
