# generated using pymatgen
data_MgSb
_symmetry_space_group_name_H-M   'P 1'
_cell_length_a   3.71103997
_cell_length_b   5.13013901
_cell_length_c   26.78099000
_cell_angle_alpha   90.00000000
_cell_angle_beta   90.00000000
_cell_angle_gamma   90.00000000
_symmetry_Int_Tables_number   1
_chemical_formula_structural   MgSb
_chemical_formula_sum   'Mg3 Sb3'
_cell_volume   509.86052935
_cell_formula_units_Z   3
loop_
 _symmetry_equiv_pos_site_id
 _symmetry_equiv_pos_as_xyz
  1  'x, y, z'
loop_
 _atom_site_type_symbol
 _atom_site_label
 _atom_site_symmetry_multiplicity
 _atom_site_fract_x
 _atom_site_fract_y
 _atom_site_fract_z
 _atom_site_occupancy
  Mg  Mg1  1  0.500000  0.500000  0.468994  1
  Mg  Mg2  1  -0.000000  0.000000  0.433343  1
  Mg  Mg3  1  -0.000000  0.000000  0.623322  1
  Sb  Sb4  1  0.000000  0.500000  0.383872  1
  Sb  Sb5  1  0.500000  0.000000  0.527954  1
  Sb  Sb6  1  0.000000  0.500000  0.562517  1
