# generated using pymatgen
data_GdOF
_symmetry_space_group_name_H-M   'P 1'
_cell_length_a   4.22178065
_cell_length_b   4.22178065
_cell_length_c   24.10049026
_cell_angle_alpha   90.00000000
_cell_angle_beta   90.00000000
_cell_angle_gamma   90.00000000
_symmetry_Int_Tables_number   1
_chemical_formula_structural   GdOF
_chemical_formula_sum   'Gd2 O2 F2'
_cell_volume   429.55344586
_cell_formula_units_Z   2
loop_
 _symmetry_equiv_pos_site_id
 _symmetry_equiv_pos_as_xyz
  1  'x, y, z'
loop_
 _atom_site_type_symbol
 _atom_site_label
 _atom_site_symmetry_multiplicity
 _atom_site_fract_x
 _atom_site_fract_y
 _atom_site_fract_z
 _atom_site_occupancy
  Gd  Gd1  1  0.500000  -0.000000  0.459314  1
  Gd  Gd2  1  0.000000  0.500000  0.540686  1
  O  O3  1  -0.000000  0.000000  0.500000  1
  O  O4  1  0.500000  0.500000  0.500000  1
  F  F5  1  0.500000  -0.000000  0.375246  1
  F  F6  1  -0.000000  0.500000  0.624754  1
