# generated using pymatgen
data_Hg3AsS4Cl
_symmetry_space_group_name_H-M   'P 1'
_cell_length_a   7.39663104
_cell_length_b   7.39663161
_cell_length_c   23.05004300
_cell_angle_alpha   90.00000000
_cell_angle_beta   90.00000000
_cell_angle_gamma   120.00000158
_symmetry_Int_Tables_number   1
_chemical_formula_structural   Hg3AsS4Cl
_chemical_formula_sum   'Hg3 As1 S4 Cl1'
_cell_volume   1092.11987211
_cell_formula_units_Z   1
loop_
 _symmetry_equiv_pos_site_id
 _symmetry_equiv_pos_as_xyz
  1  'x, y, z'
loop_
 _atom_site_type_symbol
 _atom_site_label
 _atom_site_symmetry_multiplicity
 _atom_site_fract_x
 _atom_site_fract_y
 _atom_site_fract_z
 _atom_site_occupancy
  Hg  Hg1  1  0.329092  0.164547  0.504565  1
  Hg  Hg2  1  0.835453  0.164547  0.504565  1
  Hg  Hg3  1  0.835453  0.670908  0.504565  1
  As  As4  1  0.333333  0.666667  0.499391  1
  S  S5  1  -0.000000  0.000000  0.561625  1
  S  S6  1  0.486289  0.513711  0.447669  1
  S  S7  1  0.486289  0.972578  0.447669  1
  S  S8  1  0.027422  0.513711  0.447669  1
  Cl  Cl9  1  0.666667  0.333333  0.582284  1
