# generated using pymatgen
data_InCu(PSe3)2
_symmetry_space_group_name_H-M   'P 1'
_cell_length_a   6.43909824
_cell_length_b   6.43909798
_cell_length_c   23.43223500
_cell_angle_alpha   90.00000000
_cell_angle_beta   90.00000000
_cell_angle_gamma   120.00000135
_symmetry_Int_Tables_number   1
_chemical_formula_structural   InCu(PSe3)2
_chemical_formula_sum   'In1 Cu1 P2 Se6'
_cell_volume   841.38433972
_cell_formula_units_Z   1
loop_
 _symmetry_equiv_pos_site_id
 _symmetry_equiv_pos_as_xyz
  1  'x, y, z'
loop_
 _atom_site_type_symbol
 _atom_site_label
 _atom_site_symmetry_multiplicity
 _atom_site_fract_x
 _atom_site_fract_y
 _atom_site_fract_z
 _atom_site_occupancy
  In  In1  1  0.666667  0.333333  0.500000  1
  Cu  Cu2  1  -0.000000  -0.000000  0.500000  1
  P  P3  1  0.333333  0.666667  0.548437  1
  P  P4  1  0.333333  0.666667  0.451563  1
  Se  Se5  1  0.008340  0.325673  0.573406  1
  Se  Se6  1  0.674327  0.682666  0.573406  1
  Se  Se7  1  0.674327  0.991660  0.426594  1
  Se  Se8  1  0.317334  0.325673  0.426594  1
  Se  Se9  1  0.008340  0.682666  0.426594  1
  Se  Se10  1  0.317334  0.991660  0.573406  1
