# generated using pymatgen
data_KAs2F7
_symmetry_space_group_name_H-M   'P 1'
_cell_length_a   7.35000233
_cell_length_b   8.58121626
_cell_length_c   26.94482200
_cell_angle_alpha   89.85965177
_cell_angle_beta   90.00000000
_cell_angle_gamma   90.00000000
_symmetry_Int_Tables_number   1
_chemical_formula_structural   KAs2F7
_chemical_formula_sum   'K4 As8 F28'
_cell_volume   1699.45762439
_cell_formula_units_Z   4
loop_
 _symmetry_equiv_pos_site_id
 _symmetry_equiv_pos_as_xyz
  1  'x, y, z'
loop_
 _atom_site_type_symbol
 _atom_site_label
 _atom_site_symmetry_multiplicity
 _atom_site_fract_x
 _atom_site_fract_y
 _atom_site_fract_z
 _atom_site_occupancy
  K  K1  1  0.657597  0.558837  0.474406  1
  K  K2  1  0.157597  0.679943  0.525594  1
  K  K3  1  0.342403  0.179943  0.525594  1
  K  K4  1  0.842403  0.058837  0.474406  1
  As  As5  1  0.174751  0.431614  0.410376  1
  As  As6  1  0.674751  0.807166  0.589624  1
  As  As7  1  0.825249  0.307166  0.589624  1
  As  As8  1  0.325249  0.931614  0.410376  1
  As  As9  1  0.684327  0.319075  0.354435  1
  As  As10  1  0.184327  0.919705  0.645565  1
  As  As11  1  0.315673  0.419705  0.645565  1
  As  As12  1  0.815673  0.819075  0.354435  1
  F  F13  1  0.960159  0.401784  0.361105  1
  F  F14  1  0.460159  0.836996  0.638895  1
  F  F15  1  0.039841  0.336996  0.638895  1
  F  F16  1  0.539841  0.901784  0.361105  1
  F  F17  1  0.124081  0.235210  0.429738  1
  F  F18  1  0.624081  0.003570  0.570262  1
  F  F19  1  0.875919  0.503570  0.570262  1
  F  F20  1  0.375919  0.735210  0.429738  1
  F  F21  1  0.005055  0.515076  0.451444  1
  F  F22  1  0.505055  0.723704  0.548556  1
  F  F23  1  0.994945  0.223704  0.548556  1
  F  F24  1  0.494945  0.015076  0.451444  1
  F  F25  1  0.059822  0.769171  0.360439  1
  F  F26  1  0.559822  0.469609  0.639561  1
  F  F27  1  0.940178  0.969609  0.639561  1
  F  F28  1  0.440178  0.269171  0.360439  1
  F  F29  1  0.872238  0.021300  0.362782  1
  F  F30  1  0.372238  0.217480  0.637218  1
  F  F31  1  0.127762  0.717480  0.637218  1
  F  F32  1  0.627762  0.521300  0.362782  1
  F  F33  1  0.793818  0.788667  0.420008  1
  F  F34  1  0.293818  0.450113  0.579992  1
  F  F35  1  0.206182  0.950113  0.579992  1
  F  F36  1  0.706182  0.288667  0.420008  1
  F  F37  1  0.169082  0.936107  0.467483  1
  F  F38  1  0.669082  0.302673  0.532517  1
  F  F39  1  0.830918  0.802673  0.532517  1
  F  F40  1  0.330918  0.436107  0.467483  1
