# generated using pymatgen
data_Rb(SbSe2)2
_symmetry_space_group_name_H-M   'P 1'
_cell_length_a   6.33792321
_cell_length_b   7.14082247
_cell_length_c   28.74437000
_cell_angle_alpha   90.00000000
_cell_angle_beta   90.00000000
_cell_angle_gamma   106.57452303
_symmetry_Int_Tables_number   1
_chemical_formula_structural   Rb(SbSe2)2
_chemical_formula_sum   'Rb2 Sb4 Se8'
_cell_volume   1246.85871307
_cell_formula_units_Z   2
loop_
 _symmetry_equiv_pos_site_id
 _symmetry_equiv_pos_as_xyz
  1  'x, y, z'
loop_
 _atom_site_type_symbol
 _atom_site_label
 _atom_site_symmetry_multiplicity
 _atom_site_fract_x
 _atom_site_fract_y
 _atom_site_fract_z
 _atom_site_occupancy
  Rb  Rb1  1  0.559978  0.241305  0.479365  1
  Rb  Rb2  1  0.175749  0.642102  0.520635  1
  Sb  Sb3  1  0.262837  0.537198  0.358381  1
  Sb  Sb4  1  0.472891  0.346208  0.641619  1
  Sb  Sb5  1  0.833350  0.941399  0.612589  1
  Sb  Sb6  1  0.902377  0.942007  0.387411  1
  Se  Se7  1  0.666562  0.540465  0.377390  1
  Se  Se8  1  0.069165  0.342942  0.622610  1
  Se  Se9  1  0.639987  0.564483  0.570798  1
  Se  Se10  1  0.095740  0.318924  0.429202  1
  Se  Se11  1  0.762617  0.816087  0.471590  1
  Se  Se12  1  0.973110  0.067320  0.528410  1
  Se  Se13  1  0.441823  0.003615  0.603209  1
  Se  Se14  1  0.293904  0.879792  0.396791  1
