# generated using pymatgen
data_CoSe
_symmetry_space_group_name_H-M   'P 1'
_cell_length_a   3.70684105
_cell_length_b   3.70684105
_cell_length_c   22.79781800
_cell_angle_alpha   90.00000000
_cell_angle_beta   90.00000000
_cell_angle_gamma   90.00000000
_symmetry_Int_Tables_number   1
_chemical_formula_structural   CoSe
_chemical_formula_sum   'Co2 Se2'
_cell_volume   313.25730685
_cell_formula_units_Z   2
loop_
 _symmetry_equiv_pos_site_id
 _symmetry_equiv_pos_as_xyz
  1  'x, y, z'
loop_
 _atom_site_type_symbol
 _atom_site_label
 _atom_site_symmetry_multiplicity
 _atom_site_fract_x
 _atom_site_fract_y
 _atom_site_fract_z
 _atom_site_occupancy
  Co  Co1  1  0.000000  -0.000000  0.500000  1
  Co  Co2  1  0.500000  0.500000  0.500000  1
  Se  Se3  1  -0.000000  0.500000  0.561034  1
  Se  Se4  1  0.500000  0.000000  0.438966  1
