# generated using pymatgen
data_ZrGe2
_symmetry_space_group_name_H-M   'P 1'
_cell_length_a   3.77751726
_cell_length_b   3.77983038
_cell_length_c   25.78174100
_cell_angle_alpha   90.00000000
_cell_angle_beta   90.00000000
_cell_angle_gamma   90.00000000
_symmetry_Int_Tables_number   1
_chemical_formula_structural   ZrGe2
_chemical_formula_sum   'Zr2 Ge4'
_cell_volume   368.12135327
_cell_formula_units_Z   2
loop_
 _symmetry_equiv_pos_site_id
 _symmetry_equiv_pos_as_xyz
  1  'x, y, z'
loop_
 _atom_site_type_symbol
 _atom_site_label
 _atom_site_symmetry_multiplicity
 _atom_site_fract_x
 _atom_site_fract_y
 _atom_site_fract_z
 _atom_site_occupancy
  Zr  Zr1  1  0.500000  0.500000  0.586469  1
  Zr  Zr2  1  0.000000  0.000000  0.413531  1
  Ge  Ge3  1  0.500000  0.500000  0.389104  1
  Ge  Ge4  1  -0.000000  0.000000  0.610896  1
  Ge  Ge5  1  -0.000000  0.500000  0.499936  1
  Ge  Ge6  1  0.500000  -0.000000  0.500064  1
