# generated using pymatgen
data_YMg2
_symmetry_space_group_name_H-M   'P 1'
_cell_length_a   3.33184708
_cell_length_b   6.79804061
_cell_length_c   24.88009600
_cell_angle_alpha   90.00000000
_cell_angle_beta   90.00000000
_cell_angle_gamma   90.00000000
_symmetry_Int_Tables_number   1
_chemical_formula_structural   YMg2
_chemical_formula_sum   'Y2 Mg4'
_cell_volume   563.53496450
_cell_formula_units_Z   2
loop_
 _symmetry_equiv_pos_site_id
 _symmetry_equiv_pos_as_xyz
  1  'x, y, z'
loop_
 _atom_site_type_symbol
 _atom_site_label
 _atom_site_symmetry_multiplicity
 _atom_site_fract_x
 _atom_site_fract_y
 _atom_site_fract_z
 _atom_site_occupancy
  Y  Y1  1  -0.000000  0.685298  0.502559  1
  Y  Y2  1  -0.000000  0.185021  0.497441  1
  Mg  Mg3  1  0.500000  0.939956  0.591332  1
  Mg  Mg4  1  0.500000  0.429900  0.591120  1
  Mg  Mg5  1  0.500000  0.440420  0.408880  1
  Mg  Mg6  1  0.500000  0.930363  0.408668  1
