# generated using pymatgen
data_YBC
_symmetry_space_group_name_H-M   'P 1'
_cell_length_a   3.39940914
_cell_length_b   3.53388652
_cell_length_c   23.99929700
_cell_angle_alpha   90.00000000
_cell_angle_beta   90.00000000
_cell_angle_gamma   90.00000000
_symmetry_Int_Tables_number   1
_chemical_formula_structural   YBC
_chemical_formula_sum   'Y2 B2 C2'
_cell_volume   288.30658203
_cell_formula_units_Z   2
loop_
 _symmetry_equiv_pos_site_id
 _symmetry_equiv_pos_as_xyz
  1  'x, y, z'
loop_
 _atom_site_type_symbol
 _atom_site_label
 _atom_site_symmetry_multiplicity
 _atom_site_fract_x
 _atom_site_fract_y
 _atom_site_fract_z
 _atom_site_occupancy
  Y  Y1  1  0.750000  0.000000  0.575342  1
  Y  Y2  1  0.250000  0.000000  0.424658  1
  B  B3  1  0.250000  0.500000  0.521328  1
  B  B4  1  0.750000  0.500000  0.478672  1
  C  C5  1  0.750000  0.500000  0.416995  1
  C  C6  1  0.250000  0.500000  0.583005  1
