# generated using pymatgen
data_Li3V2(O2F)2
_symmetry_space_group_name_H-M   'P 1'
_cell_length_a   5.17159540
_cell_length_b   9.14013103
_cell_length_c   25.83283200
_cell_angle_alpha   90.00000000
_cell_angle_beta   90.00000000
_cell_angle_gamma   90.00000000
_symmetry_Int_Tables_number   1
_chemical_formula_structural   Li3V2(O2F)2
_chemical_formula_sum   'Li9 V6 O12 F6'
_cell_volume   1221.09367519
_cell_formula_units_Z   3
loop_
 _symmetry_equiv_pos_site_id
 _symmetry_equiv_pos_as_xyz
  1  'x, y, z'
loop_
 _atom_site_type_symbol
 _atom_site_label
 _atom_site_symmetry_multiplicity
 _atom_site_fract_x
 _atom_site_fract_y
 _atom_site_fract_z
 _atom_site_occupancy
  Li  Li1  1  0.171137  0.344379  0.529113  1
  Li  Li2  1  0.568725  0.319348  0.581527  1
  Li  Li3  1  0.726808  0.500000  0.525680  1
  Li  Li4  1  0.171137  0.655621  0.529113  1
  Li  Li5  1  0.568725  0.680652  0.581527  1
  Li  Li6  1  0.052667  0.824676  0.608462  1
  Li  Li7  1  0.159121  0.000000  0.530197  1
  Li  Li8  1  0.601401  0.000000  0.557046  1
  Li  Li9  1  0.052667  0.175324  0.608462  1
  V  V10  1  0.870337  0.331260  0.436906  1
  V  V11  1  0.373683  0.500000  0.436661  1
  V  V12  1  0.870337  0.668740  0.436906  1
  V  V13  1  0.372594  0.832967  0.441067  1
  V  V14  1  0.871584  0.000000  0.439524  1
  V  V15  1  0.372594  0.167033  0.441067  1
  O  O16  1  0.184164  0.331562  0.403997  1
  O  O17  1  0.551725  0.339382  0.482236  1
  O  O18  1  0.713526  0.500000  0.401987  1
  O  O19  1  0.034833  0.500000  0.482340  1
  O  O20  1  0.184164  0.668438  0.403997  1
  O  O21  1  0.551725  0.660618  0.482236  1
  O  O22  1  0.709169  0.834952  0.404335  1
  O  O23  1  0.038971  0.832610  0.484052  1
  O  O24  1  0.183491  0.000000  0.405980  1
  O  O25  1  0.546748  0.000000  0.483406  1
  O  O26  1  0.709169  0.165048  0.404335  1
  O  O27  1  0.038971  0.167390  0.484052  1
  F  F28  1  0.910513  0.337728  0.582805  1
  F  F29  1  0.415854  0.500000  0.572479  1
  F  F30  1  0.910513  0.662272  0.582805  1
  F  F31  1  0.373754  0.844214  0.580851  1
  F  F32  1  0.907056  0.000000  0.593997  1
  F  F33  1  0.373754  0.155786  0.580851  1
