# generated using pymatgen
data_TeAuI
_symmetry_space_group_name_H-M   'P 1'
_cell_length_a   7.29083613
_cell_length_b   7.72646803
_cell_length_c   24.72051000
_cell_angle_alpha   90.00000000
_cell_angle_beta   90.00000000
_cell_angle_gamma   90.00000000
_symmetry_Int_Tables_number   1
_chemical_formula_structural   TeAuI
_chemical_formula_sum   'Te4 Au4 I4'
_cell_volume   1392.56596085
_cell_formula_units_Z   4
loop_
 _symmetry_equiv_pos_site_id
 _symmetry_equiv_pos_as_xyz
  1  'x, y, z'
loop_
 _atom_site_type_symbol
 _atom_site_label
 _atom_site_symmetry_multiplicity
 _atom_site_fract_x
 _atom_site_fract_y
 _atom_site_fract_z
 _atom_site_occupancy
  Te  Te1  1  0.554816  0.859332  0.450301  1
  Te  Te2  1  0.945184  0.359332  0.549699  1
  Te  Te3  1  0.445184  0.140668  0.549699  1
  Te  Te4  1  0.054816  0.640668  0.450301  1
  Au  Au5  1  0.253848  0.866366  0.511821  1
  Au  Au6  1  0.246152  0.366366  0.488179  1
  Au  Au7  1  0.746152  0.133634  0.488179  1
  Au  Au8  1  0.753848  0.633634  0.511821  1
  I  I9  1  0.019971  0.922003  0.596163  1
  I  I10  1  0.480029  0.422003  0.403837  1
  I  I11  1  0.980029  0.077997  0.403837  1
  I  I12  1  0.519971  0.577997  0.596163  1
