# generated using pymatgen
data_PdSeO3
_symmetry_space_group_name_H-M   'P 1'
_cell_length_a   4.90739391
_cell_length_b   4.90739425
_cell_length_c   24.37101800
_cell_angle_alpha   90.00000000
_cell_angle_beta   90.00000000
_cell_angle_gamma   93.81809749
_symmetry_Int_Tables_number   1
_chemical_formula_structural   PdSeO3
_chemical_formula_sum   'Pd2 Se2 O6'
_cell_volume   585.61277944
_cell_formula_units_Z   2
loop_
 _symmetry_equiv_pos_site_id
 _symmetry_equiv_pos_as_xyz
  1  'x, y, z'
loop_
 _atom_site_type_symbol
 _atom_site_label
 _atom_site_symmetry_multiplicity
 _atom_site_fract_x
 _atom_site_fract_y
 _atom_site_fract_z
 _atom_site_occupancy
  Pd  Pd1  1  -0.000017  0.500018  0.500000  1
  Pd  Pd2  1  0.499982  0.000017  0.500000  1
  Se  Se3  1  0.504425  0.504134  0.591274  1
  Se  Se4  1  0.495866  0.495575  0.408726  1
  O  O5  1  0.437969  0.826277  0.424742  1
  O  O6  1  0.826032  0.438038  0.424734  1
  O  O7  1  0.321891  0.321923  0.466064  1
  O  O8  1  0.561962  0.173968  0.575266  1
  O  O9  1  0.678077  0.678109  0.533936  1
  O  O10  1  0.173723  0.562031  0.575258  1
