# generated using pymatgen
data_Li3TeHO4
_symmetry_space_group_name_H-M   'P 1'
_cell_length_a   5.48224881
_cell_length_b   6.35588110
_cell_length_c   25.39362015
_cell_angle_alpha   90.00000000
_cell_angle_beta   90.12569697
_cell_angle_gamma   90.00000000
_symmetry_Int_Tables_number   1
_chemical_formula_structural   Li3TeHO4
_chemical_formula_sum   'Li6 Te2 H2 O8'
_cell_volume   884.82641606
_cell_formula_units_Z   2
loop_
 _symmetry_equiv_pos_site_id
 _symmetry_equiv_pos_as_xyz
  1  'x, y, z'
loop_
 _atom_site_type_symbol
 _atom_site_label
 _atom_site_symmetry_multiplicity
 _atom_site_fract_x
 _atom_site_fract_y
 _atom_site_fract_z
 _atom_site_occupancy
  Li  Li1  1  0.645869  0.250000  0.462420  1
  Li  Li2  1  0.354131  0.750000  0.537580  1
  Li  Li3  1  0.177019  0.485579  0.462682  1
  Li  Li4  1  0.822981  0.985579  0.537318  1
  Li  Li5  1  0.822981  0.514421  0.537318  1
  Li  Li6  1  0.177019  0.014421  0.462682  1
  Te  Te7  1  0.330822  0.250000  0.577723  1
  Te  Te8  1  0.669178  0.750000  0.422277  1
  H  H9  1  0.303302  0.250000  0.391737  1
  H  H10  1  0.696698  0.750000  0.608263  1
  O  O11  1  0.635365  0.250000  0.543390  1
  O  O12  1  0.364635  0.750000  0.456610  1
  O  O13  1  0.178773  0.475614  0.542419  1
  O  O14  1  0.821227  0.975614  0.457581  1
  O  O15  1  0.821227  0.524386  0.457581  1
  O  O16  1  0.178773  0.024386  0.542419  1
  O  O17  1  0.331928  0.250000  0.429489  1
  O  O18  1  0.668072  0.750000  0.570511  1
