# generated using pymatgen
data_NaTlO
_symmetry_space_group_name_H-M   'P 1'
_cell_length_a   3.61134499
_cell_length_b   6.06923990
_cell_length_c   28.16605771
_cell_angle_alpha   89.25253452
_cell_angle_beta   90.00000000
_cell_angle_gamma   90.00000000
_symmetry_Int_Tables_number   1
_chemical_formula_structural   NaTlO
_chemical_formula_sum   'Na4 Tl4 O4'
_cell_volume   617.29447516
_cell_formula_units_Z   4
loop_
 _symmetry_equiv_pos_site_id
 _symmetry_equiv_pos_as_xyz
  1  'x, y, z'
loop_
 _atom_site_type_symbol
 _atom_site_label
 _atom_site_symmetry_multiplicity
 _atom_site_fract_x
 _atom_site_fract_y
 _atom_site_fract_z
 _atom_site_occupancy
  Na  Na1  1  -0.000000  0.662016  0.431636  1
  Na  Na2  1  -0.000000  0.674992  0.571779  1
  Na  Na3  1  0.500000  0.831567  0.643804  1
  Na  Na4  1  0.500000  0.164538  0.569996  1
  Tl  Tl5  1  0.000000  0.334946  0.340101  1
  Tl  Tl6  1  -0.000000  0.332528  0.653915  1
  Tl  Tl7  1  0.500000  0.832952  0.341730  1
  Tl  Tl8  1  0.500000  0.165546  0.447088  1
  O  O9  1  -0.000000  0.007937  0.606799  1
  O  O10  1  -0.000000  0.001992  0.395636  1
  O  O11  1  0.500000  0.502285  0.600344  1
  O  O12  1  0.500000  0.494403  0.397171  1
