# generated using pymatgen
data_Ta2PtSe7
_symmetry_space_group_name_H-M   'P 1'
_cell_length_a   3.57391940
_cell_length_b   18.93474489
_cell_length_c   26.02960500
_cell_angle_alpha   90.00000000
_cell_angle_beta   90.00000000
_cell_angle_gamma   90.00000000
_symmetry_Int_Tables_number   1
_chemical_formula_structural   Ta2PtSe7
_chemical_formula_sum   'Ta4 Pt2 Se14'
_cell_volume   1761.45596193
_cell_formula_units_Z   2
loop_
 _symmetry_equiv_pos_site_id
 _symmetry_equiv_pos_as_xyz
  1  'x, y, z'
loop_
 _atom_site_type_symbol
 _atom_site_label
 _atom_site_symmetry_multiplicity
 _atom_site_fract_x
 _atom_site_fract_y
 _atom_site_fract_z
 _atom_site_occupancy
  Ta  Ta1  1  0.750000  0.422539  0.550693  1
  Ta  Ta2  1  0.250000  0.577461  0.449307  1
  Ta  Ta3  1  0.250000  0.902850  0.490942  1
  Ta  Ta4  1  0.750000  0.097150  0.509058  1
  Pt  Pt5  1  0.250000  0.225230  0.529350  1
  Pt  Pt6  1  0.750000  0.774770  0.470650  1
  Se  Se7  1  0.250000  0.698079  0.510757  1
  Se  Se8  1  0.750000  0.301921  0.489243  1
  Se  Se9  1  0.250000  0.435460  0.474810  1
  Se  Se10  1  0.750000  0.564540  0.525190  1
  Se  Se11  1  0.750000  0.525103  0.385011  1
  Se  Se12  1  0.250000  0.474897  0.614989  1
  Se  Se13  1  0.750000  0.982933  0.444460  1
  Se  Se14  1  0.250000  0.017067  0.555540  1
  Se  Se15  1  0.250000  0.337077  0.593357  1
  Se  Se16  1  0.750000  0.662923  0.406643  1
  Se  Se17  1  0.750000  0.172032  0.588264  1
  Se  Se18  1  0.250000  0.827968  0.411736  1
  Se  Se19  1  0.250000  0.144001  0.446274  1
  Se  Se20  1  0.750000  0.855999  0.553726  1
