# generated using pymatgen
data_LiFe2OF5
_symmetry_space_group_name_H-M   'P 1'
_cell_length_a   5.29765289
_cell_length_b   5.23378285
_cell_length_c   23.30774700
_cell_angle_alpha   90.00000000
_cell_angle_beta   90.00000000
_cell_angle_gamma   119.60830943
_symmetry_Int_Tables_number   1
_chemical_formula_structural   LiFe2OF5
_chemical_formula_sum   'Li1 Fe2 O1 F5'
_cell_volume   561.86342496
_cell_formula_units_Z   1
loop_
 _symmetry_equiv_pos_site_id
 _symmetry_equiv_pos_as_xyz
  1  'x, y, z'
loop_
 _atom_site_type_symbol
 _atom_site_label
 _atom_site_symmetry_multiplicity
 _atom_site_fract_x
 _atom_site_fract_y
 _atom_site_fract_z
 _atom_site_occupancy
  Li  Li1  1  0.999709  0.009003  0.445886  1
  Fe  Fe2  1  0.312398  0.645187  0.507247  1
  Fe  Fe3  1  0.686932  0.332513  0.507243  1
  O  O4  1  0.999679  0.362151  0.462829  1
  F  F5  1  0.614319  0.984745  0.550436  1
  F  F6  1  0.351474  0.003178  0.460657  1
  F  F7  1  0.999699  0.635630  0.554622  1
  F  F8  1  0.647940  0.651498  0.460678  1
  F  F9  1  0.384941  0.369989  0.550405  1
