# generated using pymatgen
data_CuSnAu
_symmetry_space_group_name_H-M   'P 1'
_cell_length_a   3.21699875
_cell_length_b   3.21699875
_cell_length_c   28.92837700
_cell_angle_alpha   90.00000000
_cell_angle_beta   90.00000000
_cell_angle_gamma   90.00000000
_symmetry_Int_Tables_number   1
_chemical_formula_structural   CuSnAu
_chemical_formula_sum   'Cu2 Sn2 Au2'
_cell_volume   299.38211554
_cell_formula_units_Z   2
loop_
 _symmetry_equiv_pos_site_id
 _symmetry_equiv_pos_as_xyz
  1  'x, y, z'
loop_
 _atom_site_type_symbol
 _atom_site_label
 _atom_site_symmetry_multiplicity
 _atom_site_fract_x
 _atom_site_fract_y
 _atom_site_fract_z
 _atom_site_occupancy
  Cu  Cu1  1  0.500000  0.000000  0.500000  1
  Cu  Cu2  1  -0.000000  0.500000  0.500000  1
  Sn  Sn3  1  0.000000  0.000000  0.667498  1
  Sn  Sn4  1  -0.000000  0.000000  0.332502  1
  Au  Au5  1  -0.000000  -0.000000  0.574280  1
  Au  Au6  1  0.000000  -0.000000  0.425720  1
