# generated using pymatgen
data_LiMnTe2
_symmetry_space_group_name_H-M   'P 1'
_cell_length_a   4.49701018
_cell_length_b   4.49701004
_cell_length_c   25.14095600
_cell_angle_alpha   90.00000000
_cell_angle_beta   90.00000000
_cell_angle_gamma   120.00000106
_symmetry_Int_Tables_number   1
_chemical_formula_structural   LiMnTe2
_chemical_formula_sum   'Li1 Mn1 Te2'
_cell_volume   440.31161556
_cell_formula_units_Z   1
loop_
 _symmetry_equiv_pos_site_id
 _symmetry_equiv_pos_as_xyz
  1  'x, y, z'
loop_
 _atom_site_type_symbol
 _atom_site_label
 _atom_site_symmetry_multiplicity
 _atom_site_fract_x
 _atom_site_fract_y
 _atom_site_fract_z
 _atom_site_occupancy
  Li  Li1  1  -0.000000  -0.000000  0.571737  1
  Mn  Mn2  1  0.333333  0.666667  0.451801  1
  Te  Te3  1  0.333333  0.666667  0.553728  1
  Te  Te4  1  0.666667  0.333333  0.422735  1
