# generated using pymatgen
data_Li5Zn4(BO3)4
_symmetry_space_group_name_H-M   'P 1'
_cell_length_a   5.02912117
_cell_length_b   5.04533247
_cell_length_c   29.47606500
_cell_angle_alpha   90.00000000
_cell_angle_beta   90.00000000
_cell_angle_gamma   59.76203307
_symmetry_Int_Tables_number   1
_chemical_formula_structural   Li5Zn4(BO3)4
_chemical_formula_sum   'Li5 Zn4 B4 O12'
_cell_volume   646.15338661
_cell_formula_units_Z   1
loop_
 _symmetry_equiv_pos_site_id
 _symmetry_equiv_pos_as_xyz
  1  'x, y, z'
loop_
 _atom_site_type_symbol
 _atom_site_label
 _atom_site_symmetry_multiplicity
 _atom_site_fract_x
 _atom_site_fract_y
 _atom_site_fract_z
 _atom_site_occupancy
  Li  Li1  1  0.993436  0.711422  0.662330  1
  Li  Li2  1  0.041668  0.622485  0.484854  1
  Li  Li3  1  0.132012  0.512029  0.405749  1
  Li  Li4  1  0.033526  0.371077  0.574718  1
  Li  Li5  1  0.967103  0.365776  0.338560  1
  Zn  Zn6  1  0.674597  0.052450  0.543280  1
  Zn  Zn7  1  0.647698  0.389384  0.640532  1
  Zn  Zn8  1  0.367604  0.966601  0.441986  1
  Zn  Zn9  1  0.286534  0.737269  0.326020  1
  B  B10  1  0.328726  0.047743  0.650292  1
  B  B11  1  0.689257  0.316103  0.456681  1
  B  B12  1  0.344114  0.711665  0.554722  1
  B  B13  1  0.630307  0.055923  0.358021  1
  O  O14  1  0.607101  0.037644  0.649955  1
  O  O15  1  0.398380  0.571286  0.450303  1
  O  O16  1  0.082438  0.689675  0.548716  1
  O  O17  1  0.899204  0.770954  0.356918  1
  O  O18  1  0.332279  0.985886  0.549594  1
  O  O19  1  0.624684  0.319360  0.345279  1
  O  O20  1  0.315117  0.785957  0.657171  1
  O  O21  1  0.698833  0.041617  0.468837  1
  O  O22  1  0.061278  0.327379  0.642321  1
  O  O23  1  0.950904  0.337272  0.452795  1
  O  O24  1  0.619466  0.442159  0.565370  1
  O  O25  1  0.355873  0.078969  0.374991  1
