# generated using pymatgen
data_Li2UI6
_symmetry_space_group_name_H-M   'P 1'
_cell_length_a   7.36334045
_cell_length_b   7.36334054
_cell_length_c   23.47175600
_cell_angle_alpha   90.00000000
_cell_angle_beta   90.00000000
_cell_angle_gamma   119.99999532
_symmetry_Int_Tables_number   1
_chemical_formula_structural   Li2UI6
_chemical_formula_sum   'Li2 U1 I6'
_cell_volume   1102.11268520
_cell_formula_units_Z   1
loop_
 _symmetry_equiv_pos_site_id
 _symmetry_equiv_pos_as_xyz
  1  'x, y, z'
loop_
 _atom_site_type_symbol
 _atom_site_label
 _atom_site_symmetry_multiplicity
 _atom_site_fract_x
 _atom_site_fract_y
 _atom_site_fract_z
 _atom_site_occupancy
  Li  Li1  1  0.666667  0.333333  0.500000  1
  Li  Li2  1  0.000000  0.000000  0.500000  1
  U  U3  1  0.333333  0.666667  0.500000  1
  I  I4  1  0.668340  0.001256  0.574071  1
  I  I5  1  0.998744  0.331660  0.425929  1
  I  I6  1  0.668340  0.667086  0.425929  1
  I  I7  1  0.998744  0.667086  0.574071  1
  I  I8  1  0.332914  0.331660  0.574071  1
  I  I9  1  0.332914  0.001256  0.425929  1
