# generated using pymatgen
data_VH2SeO5
_symmetry_space_group_name_H-M   'P 1'
_cell_length_a   6.24654449
_cell_length_b   6.41867439
_cell_length_c   26.00736500
_cell_angle_alpha   90.00000000
_cell_angle_beta   90.00000000
_cell_angle_gamma   103.30469903
_symmetry_Int_Tables_number   1
_chemical_formula_structural   VH2SeO5
_chemical_formula_sum   'V2 H4 Se2 O10'
_cell_volume   1014.76571565
_cell_formula_units_Z   2
loop_
 _symmetry_equiv_pos_site_id
 _symmetry_equiv_pos_as_xyz
  1  'x, y, z'
loop_
 _atom_site_type_symbol
 _atom_site_label
 _atom_site_symmetry_multiplicity
 _atom_site_fract_x
 _atom_site_fract_y
 _atom_site_fract_z
 _atom_site_occupancy
  V  V1  1  0.716447  0.687407  0.499406  1
  V  V2  1  0.283553  0.312593  0.500594  1
  H  H3  1  0.504786  0.501831  0.591992  1
  H  H4  1  0.495214  0.498169  0.408008  1
  H  H5  1  0.731448  0.661517  0.608461  1
  H  H6  1  0.268552  0.338483  0.391539  1
  Se  Se7  1  0.739903  0.169173  0.468218  1
  Se  Se8  1  0.260097  0.830827  0.531782  1
  O  O9  1  0.756747  0.714877  0.436884  1
  O  O10  1  0.243253  0.285123  0.563116  1
  O  O11  1  0.602474  0.644256  0.586288  1
  O  O12  1  0.397526  0.355744  0.413712  1
  O  O13  1  0.740919  0.996432  0.518586  1
  O  O14  1  0.259081  0.003568  0.481414  1
  O  O15  1  0.004028  0.313992  0.464364  1
  O  O16  1  0.995972  0.686008  0.535636  1
  O  O17  1  0.621136  0.358612  0.502550  1
  O  O18  1  0.378864  0.641388  0.497450  1
