# generated using pymatgen
data_YBiO3
_symmetry_space_group_name_H-M   'P 1'
_cell_length_a   6.10430864
_cell_length_b   6.10430891
_cell_length_c   25.76854500
_cell_angle_alpha   90.00000000
_cell_angle_beta   90.00000000
_cell_angle_gamma   60.00000139
_symmetry_Int_Tables_number   1
_chemical_formula_structural   YBiO3
_chemical_formula_sum   'Y2 Bi2 O6'
_cell_volume   831.55986806
_cell_formula_units_Z   2
loop_
 _symmetry_equiv_pos_site_id
 _symmetry_equiv_pos_as_xyz
  1  'x, y, z'
loop_
 _atom_site_type_symbol
 _atom_site_label
 _atom_site_symmetry_multiplicity
 _atom_site_fract_x
 _atom_site_fract_y
 _atom_site_fract_z
 _atom_site_occupancy
  Y  Y1  1  0.666667  0.666667  0.518246  1
  Y  Y2  1  0.333333  0.333333  0.481754  1
  Bi  Bi3  1  0.666667  0.666667  0.396643  1
  Bi  Bi4  1  0.333333  0.333333  0.603357  1
  O  O5  1  0.415203  0.549712  0.553134  1
  O  O6  1  0.450288  0.964915  0.446866  1
  O  O7  1  0.964915  0.584797  0.446866  1
  O  O8  1  0.035085  0.415203  0.553134  1
  O  O9  1  0.549712  0.035085  0.553134  1
  O  O10  1  0.584797  0.450288  0.446866  1
