# generated using pymatgen
data_CoS2
_symmetry_space_group_name_H-M   'P 1'
_cell_length_a   3.22143321
_cell_length_b   3.22143387
_cell_length_c   22.53873500
_cell_angle_alpha   90.00000000
_cell_angle_beta   90.00000000
_cell_angle_gamma   60.00000662
_symmetry_Int_Tables_number   1
_chemical_formula_structural   CoS2
_chemical_formula_sum   'Co1 S2'
_cell_volume   202.56226729
_cell_formula_units_Z   1
loop_
 _symmetry_equiv_pos_site_id
 _symmetry_equiv_pos_as_xyz
  1  'x, y, z'
loop_
 _atom_site_type_symbol
 _atom_site_label
 _atom_site_symmetry_multiplicity
 _atom_site_fract_x
 _atom_site_fract_y
 _atom_site_fract_z
 _atom_site_occupancy
  Co  Co1  1  0.000000  -0.000000  0.500000  1
  S  S2  1  0.666667  0.666667  0.556445  1
  S  S3  1  0.333333  0.333333  0.443555  1
