# generated using pymatgen
data_AgI2
_symmetry_space_group_name_H-M   'P 1'
_cell_length_a   3.85456801
_cell_length_b   3.85456803
_cell_length_c   23.53022100
_cell_angle_alpha   90.00000000
_cell_angle_beta   90.00000000
_cell_angle_gamma   89.86132195
_symmetry_Int_Tables_number   1
_chemical_formula_structural   AgI2
_chemical_formula_sum   'Ag1 I2'
_cell_volume   349.60381329
_cell_formula_units_Z   1
loop_
 _symmetry_equiv_pos_site_id
 _symmetry_equiv_pos_as_xyz
  1  'x, y, z'
loop_
 _atom_site_type_symbol
 _atom_site_label
 _atom_site_symmetry_multiplicity
 _atom_site_fract_x
 _atom_site_fract_y
 _atom_site_fract_z
 _atom_site_occupancy
  Ag  Ag1  1  0.500000  0.500000  0.500000  1
  I  I2  1  0.000000  0.500000  0.585390  1
  I  I3  1  0.500000  -0.000000  0.414610  1
