# generated using pymatgen
data_Mn2Te3O8
_symmetry_space_group_name_H-M   'P 1'
_cell_length_a   5.30549057
_cell_length_b   7.02970702
_cell_length_c   25.29901700
_cell_angle_alpha   90.00000000
_cell_angle_beta   90.00000000
_cell_angle_gamma   67.82961276
_symmetry_Int_Tables_number   1
_chemical_formula_structural   Mn2Te3O8
_chemical_formula_sum   'Mn2 Te3 O8'
_cell_volume   873.79235049
_cell_formula_units_Z   1
loop_
 _symmetry_equiv_pos_site_id
 _symmetry_equiv_pos_as_xyz
  1  'x, y, z'
loop_
 _atom_site_type_symbol
 _atom_site_label
 _atom_site_symmetry_multiplicity
 _atom_site_fract_x
 _atom_site_fract_y
 _atom_site_fract_z
 _atom_site_occupancy
  Mn  Mn1  1  0.862583  0.589125  0.544185  1
  Mn  Mn2  1  0.451708  0.410875  0.455815  1
  Te  Te3  1  0.878719  0.661875  0.407305  1
  Te  Te4  1  0.540594  0.338125  0.592695  1
  Te  Te5  1  0.021621  1.000000  0.500000  1
  O  O6  1  0.709760  0.584539  0.465331  1
  O  O7  1  0.294300  0.415461  0.534669  1
  O  O8  1  0.164539  0.411329  0.395778  1
  O  O9  1  0.575867  0.588671  0.604222  1
  O  O10  1  0.867302  0.263787  0.550653  1
  O  O11  1  0.131088  0.736213  0.449347  1
  O  O12  1  0.733320  0.118470  0.452202  1
  O  O13  1  0.851790  0.881530  0.547798  1
