# generated using pymatgen
data_ScSn3
_symmetry_space_group_name_H-M   'P 1'
_cell_length_a   6.06543315
_cell_length_b   6.06543385
_cell_length_c   20.02398985
_cell_angle_alpha   90.00000000
_cell_angle_beta   90.00000000
_cell_angle_gamma   120.00000156
_symmetry_Int_Tables_number   1
_chemical_formula_structural   ScSn3
_chemical_formula_sum   'Sc1 Sn3'
_cell_volume   637.97686887
_cell_formula_units_Z   1
loop_
 _symmetry_equiv_pos_site_id
 _symmetry_equiv_pos_as_xyz
  1  'x, y, z'
loop_
 _atom_site_type_symbol
 _atom_site_label
 _atom_site_symmetry_multiplicity
 _atom_site_fract_x
 _atom_site_fract_y
 _atom_site_fract_z
 _atom_site_occupancy
  Sc  Sc1  1  0.666667  0.333333  0.500000  1
  Sn  Sn2  1  0.166701  0.833299  0.500000  1
  Sn  Sn3  1  0.666600  0.833299  0.500000  1
  Sn  Sn4  1  0.166701  0.333400  0.500000  1
