# generated using pymatgen
data_Mn2F7
_symmetry_space_group_name_H-M   'P 1'
_cell_length_a   5.03905482
_cell_length_b   7.26119598
_cell_length_c   31.21664200
_cell_angle_alpha   90.00000000
_cell_angle_beta   90.00000000
_cell_angle_gamma   90.00000000
_symmetry_Int_Tables_number   1
_chemical_formula_structural   Mn2F7
_chemical_formula_sum   'Mn8 F28'
_cell_volume   1142.20333912
_cell_formula_units_Z   4
loop_
 _symmetry_equiv_pos_site_id
 _symmetry_equiv_pos_as_xyz
  1  'x, y, z'
loop_
 _atom_site_type_symbol
 _atom_site_label
 _atom_site_symmetry_multiplicity
 _atom_site_fract_x
 _atom_site_fract_y
 _atom_site_fract_z
 _atom_site_occupancy
  Mn  Mn1  1  0.767879  0.496471  0.544612  1
  Mn  Mn2  1  0.261625  0.496733  0.632391  1
  Mn  Mn3  1  0.769939  0.002621  0.367233  1
  Mn  Mn4  1  0.256316  0.003779  0.454802  1
  Mn  Mn5  1  0.756316  0.996221  0.545198  1
  Mn  Mn6  1  0.269939  0.997379  0.632767  1
  Mn  Mn7  1  0.761625  0.503267  0.367609  1
  Mn  Mn8  1  0.267879  0.503529  0.455388  1
  F  F9  1  0.938872  0.559176  0.419516  1
  F  F10  1  0.546622  0.448541  0.661896  1
  F  F11  1  0.645434  0.752779  0.367187  1
  F  F12  1  0.384976  0.753671  0.451049  1
  F  F13  1  0.064898  0.551298  0.676491  1
  F  F14  1  0.086807  0.560440  0.505481  1
  F  F15  1  0.958135  0.557464  0.594525  1
  F  F16  1  0.947778  0.948336  0.422719  1
  F  F17  1  0.067706  0.947198  0.341574  1
  F  F18  1  0.637261  0.746194  0.540289  1
  F  F19  1  0.377894  0.747327  0.624841  1
  F  F20  1  0.595051  0.049586  0.320525  1
  F  F21  1  0.470815  0.059190  0.401328  1
  F  F22  1  0.542967  0.057634  0.489734  1
  F  F23  1  0.042967  0.942366  0.510266  1
  F  F24  1  0.970815  0.940810  0.598672  1
  F  F25  1  0.095051  0.950414  0.679475  1
  F  F26  1  0.877894  0.252673  0.375159  1
  F  F27  1  0.137261  0.253806  0.459711  1
  F  F28  1  0.567706  0.052802  0.658426  1
  F  F29  1  0.447778  0.051664  0.577281  1
  F  F30  1  0.458135  0.442536  0.405475  1
  F  F31  1  0.586807  0.439560  0.494519  1
  F  F32  1  0.564898  0.448702  0.323509  1
  F  F33  1  0.884976  0.246329  0.548951  1
  F  F34  1  0.145434  0.247221  0.632813  1
  F  F35  1  0.046622  0.551459  0.338104  1
  F  F36  1  0.438872  0.440824  0.580484  1
