# generated using pymatgen
data_Mg4H2O5
_symmetry_space_group_name_H-M   'P 1'
_cell_length_a   3.03843143
_cell_length_b   3.03843100
_cell_length_c   31.42296300
_cell_angle_alpha   90.00000000
_cell_angle_beta   90.00000000
_cell_angle_gamma   119.99999395
_symmetry_Int_Tables_number   1
_chemical_formula_structural   Mg4H2O5
_chemical_formula_sum   'Mg4 H2 O5'
_cell_volume   251.23295684
_cell_formula_units_Z   1
loop_
 _symmetry_equiv_pos_site_id
 _symmetry_equiv_pos_as_xyz
  1  'x, y, z'
loop_
 _atom_site_type_symbol
 _atom_site_label
 _atom_site_symmetry_multiplicity
 _atom_site_fract_x
 _atom_site_fract_y
 _atom_site_fract_z
 _atom_site_occupancy
  Mg  Mg1  1  0.333333  0.666667  0.461088  1
  Mg  Mg2  1  0.666667  0.333333  0.538912  1
  Mg  Mg3  1  0.000000  0.000000  0.383017  1
  Mg  Mg4  1  0.000000  0.000000  0.616983  1
  H  H5  1  0.666667  0.333333  0.681593  1
  H  H6  1  0.333333  0.666667  0.318407  1
  O  O7  1  0.333333  0.666667  0.577801  1
  O  O8  1  0.666667  0.333333  0.422199  1
  O  O9  1  0.333333  0.666667  0.349198  1
  O  O10  1  0.666667  0.333333  0.650802  1
  O  O11  1  0.000000  0.000000  0.500000  1
