# generated using pymatgen
data_Li2Cu2F5
_symmetry_space_group_name_H-M   'P 1'
_cell_length_a   2.91888147
_cell_length_b   7.70492958
_cell_length_c   27.66723600
_cell_angle_alpha   90.00000000
_cell_angle_beta   90.00000000
_cell_angle_gamma   90.00000000
_symmetry_Int_Tables_number   1
_chemical_formula_structural   Li2Cu2F5
_chemical_formula_sum   'Li4 Cu4 F10'
_cell_volume   622.22994512
_cell_formula_units_Z   2
loop_
 _symmetry_equiv_pos_site_id
 _symmetry_equiv_pos_as_xyz
  1  'x, y, z'
loop_
 _atom_site_type_symbol
 _atom_site_label
 _atom_site_symmetry_multiplicity
 _atom_site_fract_x
 _atom_site_fract_y
 _atom_site_fract_z
 _atom_site_occupancy
  Li  Li1  1  0.750000  0.142310  0.515856  1
  Li  Li2  1  0.750000  0.849626  0.585861  1
  Li  Li3  1  0.250000  0.150374  0.414139  1
  Li  Li4  1  0.250000  0.857690  0.484144  1
  Cu  Cu5  1  0.250000  0.500257  0.554164  1
  Cu  Cu6  1  0.250000  0.168932  0.623695  1
  Cu  Cu7  1  0.750000  0.831068  0.376305  1
  Cu  Cu8  1  0.750000  0.499743  0.445836  1
  F  F9  1  0.250000  0.318188  0.507862  1
  F  F10  1  0.250000  0.993599  0.544923  1
  F  F11  1  0.250000  0.693586  0.593245  1
  F  F12  1  0.750000  0.325848  0.601768  1
  F  F13  1  0.750000  0.012668  0.640034  1
  F  F14  1  0.250000  0.987332  0.359966  1
  F  F15  1  0.250000  0.674152  0.398232  1
  F  F16  1  0.750000  0.306414  0.406755  1
  F  F17  1  0.750000  0.006401  0.455077  1
  F  F18  1  0.750000  0.681812  0.492138  1
