# generated using pymatgen
data_V3Zn2O8
_symmetry_space_group_name_H-M   'P 1'
_cell_length_a   5.10522906
_cell_length_b   5.99216336
_cell_length_c   21.83693523
_cell_angle_alpha   90.00000000
_cell_angle_beta   91.57789068
_cell_angle_gamma   90.00000000
_symmetry_Int_Tables_number   1
_chemical_formula_structural   V3Zn2O8
_chemical_formula_sum   'V3 Zn2 O8'
_cell_volume   667.76838492
_cell_formula_units_Z   1
loop_
 _symmetry_equiv_pos_site_id
 _symmetry_equiv_pos_as_xyz
  1  'x, y, z'
loop_
 _atom_site_type_symbol
 _atom_site_label
 _atom_site_symmetry_multiplicity
 _atom_site_fract_x
 _atom_site_fract_y
 _atom_site_fract_z
 _atom_site_occupancy
  V  V1  1  0.500000  -0.000000  0.500000  1
  V  V2  1  0.000000  0.251597  0.500000  1
  V  V3  1  0.000000  0.748403  0.500000  1
  Zn  Zn4  1  0.497278  0.500000  0.431291  1
  Zn  Zn5  1  0.502722  0.500000  0.568709  1
  O  O6  1  0.137405  0.500000  0.550446  1
  O  O7  1  0.862595  0.500000  0.449554  1
  O  O8  1  0.175727  -0.000000  0.544104  1
  O  O9  1  0.824273  -0.000000  0.455896  1
  O  O10  1  0.313538  0.766262  0.452253  1
  O  O11  1  0.313538  0.233738  0.452253  1
  O  O12  1  0.686462  0.766262  0.547747  1
  O  O13  1  0.686462  0.233738  0.547747  1
