# generated using pymatgen
data_Cu2H2CO5
_symmetry_space_group_name_H-M   'P 1'
_cell_length_a   10.52541365
_cell_length_b   11.86106327
_cell_length_c   21.45129800
_cell_angle_alpha   90.00000000
_cell_angle_beta   90.32149323
_cell_angle_gamma   90.00000000
_symmetry_Int_Tables_number   1
_chemical_formula_structural   Cu2H2CO5
_chemical_formula_sum   'Cu8 H8 C4 O20'
_cell_volume   2677.99359924
_cell_formula_units_Z   4
loop_
 _symmetry_equiv_pos_site_id
 _symmetry_equiv_pos_as_xyz
  1  'x, y, z'
loop_
 _atom_site_type_symbol
 _atom_site_label
 _atom_site_symmetry_multiplicity
 _atom_site_fract_x
 _atom_site_fract_y
 _atom_site_fract_z
 _atom_site_occupancy
  Cu  Cu1  1  0.742047  0.287834  0.487611  1
  Cu  Cu2  1  0.278794  0.787834  0.512389  1
  Cu  Cu3  1  0.778794  0.712166  0.512389  1
  Cu  Cu4  1  0.242047  0.212166  0.487611  1
  Cu  Cu5  1  0.479111  0.389337  0.488369  1
  Cu  Cu6  1  0.541729  0.889337  0.511631  1
  Cu  Cu7  1  0.041729  0.610663  0.511631  1
  Cu  Cu8  1  0.979111  0.110663  0.488369  1
  H  H9  1  0.249673  0.404851  0.468444  1
  H  H10  1  0.771168  0.904851  0.531556  1
  H  H11  1  0.271168  0.595149  0.531556  1
  H  H12  1  0.749673  0.095149  0.468444  1
  H  H13  1  0.665744  0.490314  0.508391  1
  H  H14  1  0.355097  0.990314  0.491609  1
  H  H15  1  0.855097  0.509686  0.491609  1
  H  H16  1  0.165744  0.009686  0.508391  1
  C  C17  1  0.515798  0.135413  0.491452  1
  C  C18  1  0.505042  0.635413  0.508548  1
  C  C19  1  0.005042  0.864587  0.508548  1
  C  C20  1  0.015798  0.364587  0.491452  1
  O  O21  1  0.397292  0.124980  0.504212  1
  O  O22  1  0.623548  0.624980  0.495788  1
  O  O23  1  0.123548  0.875020  0.495788  1
  O  O24  1  0.897292  0.375020  0.504212  1
  O  O25  1  0.560652  0.232949  0.473933  1
  O  O26  1  0.460189  0.732949  0.526067  1
  O  O27  1  0.960189  0.767051  0.526067  1
  O  O28  1  0.060652  0.267051  0.473933  1
  O  O29  1  0.592779  0.051159  0.496148  1
  O  O30  1  0.428062  0.551159  0.503852  1
  O  O31  1  0.928062  0.948841  0.503852  1
  O  O32  1  0.092779  0.448841  0.496148  1
  O  O33  1  0.316372  0.348075  0.460140  1
  O  O34  1  0.704468  0.848075  0.539860  1
  O  O35  1  0.204468  0.651925  0.539860  1
  O  O36  1  0.816372  0.151925  0.460140  1
  O  O37  1  0.645548  0.410747  0.518660  1
  O  O38  1  0.375293  0.910747  0.481339  1
  O  O39  1  0.875293  0.589253  0.481339  1
  O  O40  1  0.145548  0.089253  0.518660  1
