# generated using pymatgen
data_NbOF2
_symmetry_space_group_name_H-M   'P 1'
_cell_length_a   3.40093491
_cell_length_b   3.89674911
_cell_length_c   22.52986400
_cell_angle_alpha   90.00000000
_cell_angle_beta   90.00000000
_cell_angle_gamma   89.99446420
_symmetry_Int_Tables_number   1
_chemical_formula_structural   NbOF2
_chemical_formula_sum   'Nb1 O1 F2'
_cell_volume   298.57905085
_cell_formula_units_Z   1
loop_
 _symmetry_equiv_pos_site_id
 _symmetry_equiv_pos_as_xyz
  1  'x, y, z'
loop_
 _atom_site_type_symbol
 _atom_site_label
 _atom_site_symmetry_multiplicity
 _atom_site_fract_x
 _atom_site_fract_y
 _atom_site_fract_z
 _atom_site_occupancy
  Nb  Nb1  1  0.008547  0.003067  0.500093  1
  O  O2  1  0.009935  0.501226  0.499648  1
  F  F3  1  0.509083  0.001671  0.443945  1
  F  F4  1  0.509169  0.999762  0.556314  1
