# generated using pymatgen
data_V4O9
_symmetry_space_group_name_H-M   'P 1'
_cell_length_a   8.34383569
_cell_length_b   8.34383569
_cell_length_c   24.32397800
_cell_angle_alpha   90.00000000
_cell_angle_beta   90.00000000
_cell_angle_gamma   90.00000000
_symmetry_Int_Tables_number   1
_chemical_formula_structural   V4O9
_chemical_formula_sum   'V8 O18'
_cell_volume   1693.42547335
_cell_formula_units_Z   2
loop_
 _symmetry_equiv_pos_site_id
 _symmetry_equiv_pos_as_xyz
  1  'x, y, z'
loop_
 _atom_site_type_symbol
 _atom_site_label
 _atom_site_symmetry_multiplicity
 _atom_site_fract_x
 _atom_site_fract_y
 _atom_site_fract_z
 _atom_site_occupancy
  V  V1  1  0.397696  0.707707  0.470630  1
  V  V2  1  0.292293  0.397696  0.529370  1
  V  V3  1  0.792293  0.897696  0.470630  1
  V  V4  1  0.897696  0.207707  0.529370  1
  V  V5  1  0.602304  0.292293  0.470630  1
  V  V6  1  0.207707  0.102304  0.470630  1
  V  V7  1  0.102304  0.792293  0.529370  1
  V  V8  1  0.707707  0.602304  0.529370  1
  O  O9  1  0.500000  0.500000  0.500000  1
  O  O10  1  0.000000  -0.000000  0.500000  1
  O  O11  1  0.691599  0.607922  0.595097  1
  O  O12  1  0.107921  0.808401  0.595097  1
  O  O13  1  0.892079  0.191599  0.595097  1
  O  O14  1  0.308401  0.392079  0.595097  1
  O  O15  1  0.808401  0.892079  0.404903  1
  O  O16  1  0.392079  0.691599  0.404903  1
  O  O17  1  0.607922  0.308401  0.404903  1
  O  O18  1  0.191599  0.107921  0.404903  1
  O  O19  1  0.397335  0.214564  0.492959  1
  O  O20  1  0.714564  0.102665  0.492959  1
  O  O21  1  0.285436  0.897335  0.492959  1
  O  O22  1  0.602665  0.785436  0.492959  1
  O  O23  1  0.897335  0.714564  0.507041  1
  O  O24  1  0.785436  0.397335  0.507041  1
  O  O25  1  0.214564  0.602665  0.507041  1
  O  O26  1  0.102665  0.285436  0.507041  1
