# generated using pymatgen
data_LiFeSiO4
_symmetry_space_group_name_H-M   'P 1'
_cell_length_a   4.74613997
_cell_length_b   6.22897665
_cell_length_c   24.47691800
_cell_angle_alpha   90.00000000
_cell_angle_beta   90.00000000
_cell_angle_gamma   90.00000000
_symmetry_Int_Tables_number   1
_chemical_formula_structural   LiFeSiO4
_chemical_formula_sum   'Li2 Fe2 Si2 O8'
_cell_volume   723.62569184
_cell_formula_units_Z   2
loop_
 _symmetry_equiv_pos_site_id
 _symmetry_equiv_pos_as_xyz
  1  'x, y, z'
loop_
 _atom_site_type_symbol
 _atom_site_label
 _atom_site_symmetry_multiplicity
 _atom_site_fract_x
 _atom_site_fract_y
 _atom_site_fract_z
 _atom_site_occupancy
  Li  Li1  1  0.944536  0.020935  0.423271  1
  Li  Li2  1  0.055464  0.520935  0.576729  1
  Fe  Fe3  1  0.500051  0.770950  0.500021  1
  Fe  Fe4  1  0.499949  0.270950  0.499979  1
  Si  Si5  1  0.915446  0.521017  0.460314  1
  Si  Si6  1  0.084554  0.021017  0.539686  1
  O  O7  1  0.782681  0.745345  0.437217  1
  O  O8  1  0.782903  0.296450  0.437241  1
  O  O9  1  0.257948  0.520988  0.468348  1
  O  O10  1  0.251960  0.020931  0.476535  1
  O  O11  1  0.748040  0.520931  0.523465  1
  O  O12  1  0.742052  0.020988  0.531652  1
  O  O13  1  0.217097  0.796450  0.562759  1
  O  O14  1  0.217319  0.245345  0.562783  1
