# generated using pymatgen
data_DySBr
_symmetry_space_group_name_H-M   'P 1'
_cell_length_a   4.04864428
_cell_length_b   5.33225684
_cell_length_c   26.25683900
_cell_angle_alpha   90.00000000
_cell_angle_beta   90.00000000
_cell_angle_gamma   90.00000000
_symmetry_Int_Tables_number   1
_chemical_formula_structural   DySBr
_chemical_formula_sum   'Dy2 S2 Br2'
_cell_volume   566.84343596
_cell_formula_units_Z   2
loop_
 _symmetry_equiv_pos_site_id
 _symmetry_equiv_pos_as_xyz
  1  'x, y, z'
loop_
 _atom_site_type_symbol
 _atom_site_label
 _atom_site_symmetry_multiplicity
 _atom_site_fract_x
 _atom_site_fract_y
 _atom_site_fract_z
 _atom_site_occupancy
  Dy  Dy1  1  0.000000  0.500000  0.544485  1
  Dy  Dy2  1  0.500000  -0.000000  0.455515  1
  S  S3  1  0.500000  0.500000  0.474001  1
  S  S4  1  -0.000000  0.000000  0.525999  1
  Br  Br5  1  0.000000  0.000000  0.381031  1
  Br  Br6  1  0.500000  0.500000  0.618969  1
