# generated using pymatgen
data_Bi2O3
_symmetry_space_group_name_H-M   'P 1'
_cell_length_a   3.93306296
_cell_length_b   3.88695119
_cell_length_c   38.26080400
_cell_angle_alpha   90.00000000
_cell_angle_beta   90.00000000
_cell_angle_gamma   119.47267559
_symmetry_Int_Tables_number   1
_chemical_formula_structural   Bi2O3
_chemical_formula_sum   'Bi6 O9'
_cell_volume   509.22295102
_cell_formula_units_Z   3
loop_
 _symmetry_equiv_pos_site_id
 _symmetry_equiv_pos_as_xyz
  1  'x, y, z'
loop_
 _atom_site_type_symbol
 _atom_site_label
 _atom_site_symmetry_multiplicity
 _atom_site_fract_x
 _atom_site_fract_y
 _atom_site_fract_z
 _atom_site_occupancy
  Bi  Bi1  1  0.897995  0.963001  0.715991  1
  Bi  Bi2  1  0.748911  0.646905  0.463192  1
  Bi  Bi3  1  0.588064  0.340200  0.627230  1
  Bi  Bi4  1  0.263889  0.691571  0.547261  1
  Bi  Bi5  1  0.417587  0.005943  0.376088  1
  Bi  Bi6  1  0.847695  0.751042  0.284174  1
  O  O7  1  0.907442  0.984229  0.661297  1
  O  O8  1  0.246674  0.666592  0.607637  1
  O  O9  1  0.592651  0.343378  0.566477  1
  O  O10  1  0.919950  0.006512  0.511131  1
  O  O11  1  0.383279  0.923284  0.447925  1
  O  O12  1  0.758441  0.674044  0.386690  1
  O  O13  1  0.413397  0.029494  0.320434  1
  O  O14  1  0.128292  0.389303  0.265477  1
  O  O15  1  0.234075  0.628989  0.718996  1
