# generated using pymatgen
data_NaI3O8
_symmetry_space_group_name_H-M   'P 1'
_cell_length_a   8.17057004
_cell_length_b   8.17057004
_cell_length_c   24.57345700
_cell_angle_alpha   90.00000000
_cell_angle_beta   90.00000000
_cell_angle_gamma   90.00000000
_symmetry_Int_Tables_number   1
_chemical_formula_structural   NaI3O8
_chemical_formula_sum   'Na2 I6 O16'
_cell_volume   1640.48012026
_cell_formula_units_Z   2
loop_
 _symmetry_equiv_pos_site_id
 _symmetry_equiv_pos_as_xyz
  1  'x, y, z'
loop_
 _atom_site_type_symbol
 _atom_site_label
 _atom_site_symmetry_multiplicity
 _atom_site_fract_x
 _atom_site_fract_y
 _atom_site_fract_z
 _atom_site_occupancy
  Na  Na1  1  0.500000  0.500000  0.500000  1
  Na  Na2  1  0.000000  0.000000  0.500000  1
  I  I3  1  0.000000  0.500000  0.473341  1
  I  I4  1  0.744953  0.270141  0.588680  1
  I  I5  1  0.500000  0.000000  0.526659  1
  I  I6  1  0.729859  0.744953  0.411320  1
  I  I7  1  0.255047  0.729859  0.588680  1
  I  I8  1  0.270141  0.255047  0.411320  1
  O  O9  1  0.266458  0.510248  0.588252  1
  O  O10  1  0.071659  0.767197  0.549435  1
  O  O11  1  0.959257  0.331935  0.426555  1
  O  O12  1  0.767197  0.928341  0.450565  1
  O  O13  1  0.668065  0.959257  0.573445  1
  O  O14  1  0.510248  0.733542  0.411748  1
  O  O15  1  0.752804  0.580721  0.467259  1
  O  O16  1  0.489752  0.266458  0.411748  1
  O  O17  1  0.580721  0.247196  0.532741  1
  O  O18  1  0.419279  0.752804  0.532741  1
  O  O19  1  0.928341  0.232803  0.549435  1
  O  O20  1  0.331935  0.040743  0.573445  1
  O  O21  1  0.247196  0.419279  0.467259  1
  O  O22  1  0.040743  0.668065  0.426555  1
  O  O23  1  0.232803  0.071659  0.450565  1
  O  O24  1  0.733542  0.489752  0.588252  1
