# generated using pymatgen
data_KB(CO2)4
_symmetry_space_group_name_H-M   'P 1'
_cell_length_a   8.20120899
_cell_length_b   11.03891791
_cell_length_c   22.83867176
_cell_angle_alpha   90.00000000
_cell_angle_beta   90.00000000
_cell_angle_gamma   90.00000000
_symmetry_Int_Tables_number   1
_chemical_formula_structural   KB(CO2)4
_chemical_formula_sum   'K2 B2 C8 O16'
_cell_volume   2067.64142998
_cell_formula_units_Z   2
loop_
 _symmetry_equiv_pos_site_id
 _symmetry_equiv_pos_as_xyz
  1  'x, y, z'
loop_
 _atom_site_type_symbol
 _atom_site_label
 _atom_site_symmetry_multiplicity
 _atom_site_fract_x
 _atom_site_fract_y
 _atom_site_fract_z
 _atom_site_occupancy
  K  K1  1  0.250000  0.419951  0.500000  1
  K  K2  1  0.750000  0.580049  0.500000  1
  B  B3  1  0.750000  0.069018  0.500000  1
  B  B4  1  0.250000  0.930982  0.500000  1
  C  C5  1  0.656211  0.266346  0.500000  1
  C  C6  1  0.250000  0.125292  0.533864  1
  C  C7  1  0.750000  0.874708  0.466136  1
  C  C8  1  0.250000  0.125292  0.466136  1
  C  C9  1  0.156211  0.733654  0.500000  1
  C  C10  1  0.750000  0.874708  0.533864  1
  C  C11  1  0.843789  0.266346  0.500000  1
  C  C12  1  0.343789  0.733654  0.500000  1
  O  O13  1  0.605888  0.152908  0.500000  1
  O  O14  1  0.572941  0.358161  0.500000  1
  O  O15  1  0.427059  0.641839  0.500000  1
  O  O16  1  0.394112  0.847092  0.500000  1
  O  O17  1  0.250000  0.214478  0.564921  1
  O  O18  1  0.750000  0.990033  0.551432  1
  O  O19  1  0.105888  0.847092  0.500000  1
  O  O20  1  0.750000  0.785522  0.564921  1
  O  O21  1  0.072941  0.641839  0.500000  1
  O  O22  1  0.250000  0.009967  0.448568  1
  O  O23  1  0.750000  0.785522  0.435079  1
  O  O24  1  0.250000  0.214478  0.435079  1
  O  O25  1  0.250000  0.009967  0.551432  1
  O  O26  1  0.750000  0.990033  0.448568  1
  O  O27  1  0.927059  0.358161  0.500000  1
  O  O28  1  0.894112  0.152908  0.500000  1
