# generated using pymatgen
data_NaBF4
_symmetry_space_group_name_H-M   'P 1'
_cell_length_a   6.61714589
_cell_length_b   6.56602734
_cell_length_c   22.81543000
_cell_angle_alpha   90.00000000
_cell_angle_beta   90.00000000
_cell_angle_gamma   90.00000000
_symmetry_Int_Tables_number   1
_chemical_formula_structural   NaBF4
_chemical_formula_sum   'Na2 B2 F8'
_cell_volume   991.29303505
_cell_formula_units_Z   2
loop_
 _symmetry_equiv_pos_site_id
 _symmetry_equiv_pos_as_xyz
  1  'x, y, z'
loop_
 _atom_site_type_symbol
 _atom_site_label
 _atom_site_symmetry_multiplicity
 _atom_site_fract_x
 _atom_site_fract_y
 _atom_site_fract_z
 _atom_site_occupancy
  Na  Na1  1  0.500000  -0.000000  0.531177  1
  Na  Na2  1  0.000000  0.500000  0.468823  1
  B  B3  1  0.500000  0.500000  0.525631  1
  B  B4  1  0.000000  -0.000000  0.474369  1
  F  F5  1  0.326199  0.500000  0.489401  1
  F  F6  1  0.826199  -0.000000  0.510599  1
  F  F7  1  0.673801  0.500000  0.489401  1
  F  F8  1  0.173801  -0.000000  0.510599  1
  F  F9  1  0.000000  0.823998  0.439063  1
  F  F10  1  0.500000  0.676002  0.560937  1
  F  F11  1  -0.000000  0.176002  0.439063  1
  F  F12  1  0.500000  0.323998  0.560937  1
