# generated using pymatgen
data_MgV4O10
_symmetry_space_group_name_H-M   'P 1'
_cell_length_a   3.72201156
_cell_length_b   11.26917880
_cell_length_c   24.16856400
_cell_angle_alpha   90.00000000
_cell_angle_beta   90.00000000
_cell_angle_gamma   90.00000000
_symmetry_Int_Tables_number   1
_chemical_formula_structural   MgV4O10
_chemical_formula_sum   'Mg1 V4 O10'
_cell_volume   1013.72658110
_cell_formula_units_Z   1
loop_
 _symmetry_equiv_pos_site_id
 _symmetry_equiv_pos_as_xyz
  1  'x, y, z'
loop_
 _atom_site_type_symbol
 _atom_site_label
 _atom_site_symmetry_multiplicity
 _atom_site_fract_x
 _atom_site_fract_y
 _atom_site_fract_z
 _atom_site_occupancy
  Mg  Mg1  1  0.500000  0.249960  0.528936  1
  V  V2  1  0.500000  0.900053  0.519635  1
  V  V3  1  0.000000  0.088239  0.470874  1
  V  V4  1  0.000000  0.411661  0.470852  1
  V  V5  1  0.500000  0.599851  0.519663  1
  O  O6  1  -0.000000  0.249967  0.509939  1
  O  O7  1  0.500000  0.749946  0.493002  1
  O  O8  1  -0.000000  0.923918  0.499950  1
  O  O9  1  0.500000  0.076760  0.503187  1
  O  O10  1  -0.000000  0.575977  0.499942  1
  O  O11  1  0.500000  0.423154  0.503170  1
  O  O12  1  0.500000  0.611414  0.585982  1
  O  O13  1  -0.000000  0.400462  0.404417  1
  O  O14  1  -0.000000  0.099436  0.404433  1
  O  O15  1  0.500000  0.888442  0.586016  1
