# generated using pymatgen
data_FeCoO4
_symmetry_space_group_name_H-M   'P 1'
_cell_length_a   2.91208468
_cell_length_b   5.01724463
_cell_length_c   21.89042300
_cell_angle_alpha   90.00000000
_cell_angle_beta   90.00000000
_cell_angle_gamma   90.00000000
_symmetry_Int_Tables_number   1
_chemical_formula_structural   FeCoO4
_chemical_formula_sum   'Fe1 Co1 O4'
_cell_volume   319.83311667
_cell_formula_units_Z   1
loop_
 _symmetry_equiv_pos_site_id
 _symmetry_equiv_pos_as_xyz
  1  'x, y, z'
loop_
 _atom_site_type_symbol
 _atom_site_label
 _atom_site_symmetry_multiplicity
 _atom_site_fract_x
 _atom_site_fract_y
 _atom_site_fract_z
 _atom_site_occupancy
  Fe  Fe1  1  -0.000000  0.000000  0.500000  1
  Co  Co2  1  0.500000  0.500000  0.500000  1
  O  O3  1  0.500000  0.179712  0.543955  1
  O  O4  1  0.500000  0.820288  0.456045  1
  O  O5  1  0.000000  0.654525  0.543730  1
  O  O6  1  0.000000  0.345475  0.456270  1
