# generated using pymatgen
data_NbS3
_symmetry_space_group_name_H-M   'P 1'
_cell_length_a   5.02751843
_cell_length_b   6.80137706
_cell_length_c   26.28840500
_cell_angle_alpha   90.00000000
_cell_angle_beta   90.00000000
_cell_angle_gamma   90.01629277
_symmetry_Int_Tables_number   1
_chemical_formula_structural   NbS3
_chemical_formula_sum   'Nb4 S12'
_cell_volume   898.90695962
_cell_formula_units_Z   4
loop_
 _symmetry_equiv_pos_site_id
 _symmetry_equiv_pos_as_xyz
  1  'x, y, z'
loop_
 _atom_site_type_symbol
 _atom_site_label
 _atom_site_symmetry_multiplicity
 _atom_site_fract_x
 _atom_site_fract_y
 _atom_site_fract_z
 _atom_site_occupancy
  Nb  Nb1  1  0.703670  0.849133  0.448889  1
  Nb  Nb2  1  0.704012  0.400066  0.445803  1
  Nb  Nb3  1  0.203439  0.147042  0.551111  1
  Nb  Nb4  1  0.203096  0.596108  0.554197  1
  S  S5  1  0.998166  0.366343  0.618623  1
  S  S6  1  0.703599  0.131957  0.515361  1
  S  S7  1  0.703196  0.612804  0.522205  1
  S  S8  1  0.203913  0.383371  0.477795  1
  S  S9  1  0.505713  0.629516  0.380194  1
  S  S10  1  0.203510  0.864218  0.484639  1
  S  S11  1  0.001630  0.875054  0.609518  1
  S  S12  1  0.905478  0.121121  0.390482  1
  S  S13  1  0.908942  0.629832  0.381377  1
  S  S14  1  0.401396  0.366659  0.619806  1
  S  S15  1  0.404033  0.874996  0.609678  1
  S  S16  1  0.503076  0.121179  0.390322  1
