# generated using pymatgen
data_Li3Sn(PO3)6
_symmetry_space_group_name_H-M   'P 1'
_cell_length_a   7.55615888
_cell_length_b   7.27036252
_cell_length_c   29.45219900
_cell_angle_alpha   89.01465502
_cell_angle_beta   89.87029850
_cell_angle_gamma   64.57096017
_symmetry_Int_Tables_number   1
_chemical_formula_structural   Li3Sn(PO3)6
_chemical_formula_sum   'Li3 Sn1 P6 O18'
_cell_volume   1460.99273531
_cell_formula_units_Z   1
loop_
 _symmetry_equiv_pos_site_id
 _symmetry_equiv_pos_as_xyz
  1  'x, y, z'
loop_
 _atom_site_type_symbol
 _atom_site_label
 _atom_site_symmetry_multiplicity
 _atom_site_fract_x
 _atom_site_fract_y
 _atom_site_fract_z
 _atom_site_occupancy
  Li  Li1  1  0.393382  0.212828  0.409292  1
  Li  Li2  1  0.670686  0.182988  0.467730  1
  Li  Li3  1  0.700566  0.455612  0.531792  1
  Sn  Sn4  1  0.280650  0.877768  0.532547  1
  P  P5  1  0.952260  0.376993  0.445358  1
  P  P6  1  0.423851  0.239298  0.558293  1
  P  P7  1  0.632079  0.461509  0.382033  1
  P  P8  1  0.611986  0.763207  0.449624  1
  P  P9  1  0.037447  0.598303  0.557857  1
  P  P10  1  0.342846  0.558772  0.620664  1
  O  O11  1  0.372839  0.594845  0.667662  1
  O  O12  1  0.112434  0.624037  0.607383  1
  O  O13  1  0.571717  0.982063  0.448260  1
  O  O14  1  0.447636  0.020802  0.562186  1
  O  O15  1  0.878106  0.274148  0.480737  1
  O  O16  1  0.165282  0.316265  0.442404  1
  O  O17  1  0.436146  0.316011  0.608308  1
  O  O18  1  0.554615  0.696942  0.403478  1
  O  O19  1  0.865936  0.373647  0.395997  1
  O  O20  1  0.550443  0.351659  0.413543  1
  O  O21  1  0.843678  0.595127  0.558919  1
  O  O22  1  0.418094  0.650861  0.581019  1
  O  O23  1  0.561026  0.277432  0.527319  1
  O  O24  1  0.508734  0.701333  0.489122  1
  O  O25  1  0.063828  0.753731  0.525569  1
  O  O26  1  0.840567  0.623383  0.455827  1
  O  O27  1  0.198587  0.372903  0.544125  1
  O  O28  1  0.604114  0.477224  0.332950  1
