# generated using pymatgen
data_NaLi2As
_symmetry_space_group_name_H-M   'P 1'
_cell_length_a   3.30253120
_cell_length_b   4.91320181
_cell_length_c   24.87177800
_cell_angle_alpha   90.00000000
_cell_angle_beta   90.00000000
_cell_angle_gamma   90.00000000
_symmetry_Int_Tables_number   1
_chemical_formula_structural   NaLi2As
_chemical_formula_sum   'Na1 Li2 As1'
_cell_volume   403.56952627
_cell_formula_units_Z   1
loop_
 _symmetry_equiv_pos_site_id
 _symmetry_equiv_pos_as_xyz
  1  'x, y, z'
loop_
 _atom_site_type_symbol
 _atom_site_label
 _atom_site_symmetry_multiplicity
 _atom_site_fract_x
 _atom_site_fract_y
 _atom_site_fract_z
 _atom_site_occupancy
  Na  Na1  1  -0.000000  0.000000  0.500000  1
  Li  Li2  1  0.500000  0.500000  0.596329  1
  Li  Li3  1  0.500000  0.500000  0.403671  1
  As  As4  1  0.500000  0.500000  0.500000  1
