# generated using pymatgen
data_AlHO2
_symmetry_space_group_name_H-M   'P 1'
_cell_length_a   2.91217146
_cell_length_b   3.66189703
_cell_length_c   25.59837700
_cell_angle_alpha   90.00000000
_cell_angle_beta   90.00000000
_cell_angle_gamma   90.00000000
_symmetry_Int_Tables_number   1
_chemical_formula_structural   AlHO2
_chemical_formula_sum   'Al2 H2 O4'
_cell_volume   272.98293593
_cell_formula_units_Z   2
loop_
 _symmetry_equiv_pos_site_id
 _symmetry_equiv_pos_as_xyz
  1  'x, y, z'
loop_
 _atom_site_type_symbol
 _atom_site_label
 _atom_site_symmetry_multiplicity
 _atom_site_fract_x
 _atom_site_fract_y
 _atom_site_fract_z
 _atom_site_occupancy
  Al  Al1  1  -0.000000  0.251191  0.533423  1
  Al  Al2  1  0.500000  0.751191  0.466577  1
  H  H3  1  0.500000  0.438592  0.608033  1
  H  H4  1  0.000000  0.938592  0.391967  1
  O  O5  1  0.500000  0.252173  0.481041  1
  O  O6  1  -0.000000  0.752173  0.518959  1
  O  O7  1  0.500000  0.246759  0.581772  1
  O  O8  1  0.000000  0.746759  0.418228  1
