# generated using pymatgen
data_AgHgAsS3
_symmetry_space_group_name_H-M   'P 1'
_cell_length_a   6.81980522
_cell_length_b   8.14583787
_cell_length_c   26.42438100
_cell_angle_alpha   90.00000000
_cell_angle_beta   90.00000000
_cell_angle_gamma   116.12507383
_symmetry_Int_Tables_number   1
_chemical_formula_structural   AgHgAsS3
_chemical_formula_sum   'Ag2 Hg2 As2 S6'
_cell_volume   1317.98075534
_cell_formula_units_Z   2
loop_
 _symmetry_equiv_pos_site_id
 _symmetry_equiv_pos_as_xyz
  1  'x, y, z'
loop_
 _atom_site_type_symbol
 _atom_site_label
 _atom_site_symmetry_multiplicity
 _atom_site_fract_x
 _atom_site_fract_y
 _atom_site_fract_z
 _atom_site_occupancy
  Ag  Ag1  1  0.472561  0.742323  0.499914  1
  Ag  Ag2  1  0.472561  0.242323  0.500086  1
  Hg  Hg3  1  0.984401  0.724611  0.566025  1
  Hg  Hg4  1  0.984401  0.224611  0.433975  1
  As  As5  1  0.050800  0.816366  0.432626  1
  As  As6  1  0.050800  0.316366  0.567374  1
  S  S7  1  0.412899  0.968575  0.450645  1
  S  S8  1  0.412899  0.468575  0.549355  1
  S  S9  1  0.003719  0.509158  0.623467  1
  S  S10  1  0.916222  0.406566  0.496139  1
  S  S11  1  0.916221  0.906566  0.503861  1
  S  S12  1  0.003718  0.009158  0.376533  1
