# generated using pymatgen
data_PdSe2
_symmetry_space_group_name_H-M   'P 1'
_cell_length_a   5.69427436
_cell_length_b   5.90253514
_cell_length_c   21.47475900
_cell_angle_alpha   90.00000000
_cell_angle_beta   90.00000000
_cell_angle_gamma   90.00000000
_symmetry_Int_Tables_number   1
_chemical_formula_structural   PdSe2
_chemical_formula_sum   'Pd2 Se4'
_cell_volume   721.78070536
_cell_formula_units_Z   2
loop_
 _symmetry_equiv_pos_site_id
 _symmetry_equiv_pos_as_xyz
  1  'x, y, z'
loop_
 _atom_site_type_symbol
 _atom_site_label
 _atom_site_symmetry_multiplicity
 _atom_site_fract_x
 _atom_site_fract_y
 _atom_site_fract_z
 _atom_site_occupancy
  Pd  Pd1  1  0.500000  -0.000000  0.500000  1
  Pd  Pd2  1  0.000000  0.500000  0.500000  1
  Se  Se3  1  0.392917  0.618681  0.463834  1
  Se  Se4  1  0.892917  0.881319  0.536166  1
  Se  Se5  1  0.107083  0.118681  0.463834  1
  Se  Se6  1  0.607083  0.381319  0.536166  1
