# generated using pymatgen
data_Zn(SbO2)4
_symmetry_space_group_name_H-M   'P 1'
_cell_length_a   3.26203277
_cell_length_b   9.27244959
_cell_length_c   26.08628900
_cell_angle_alpha   90.00000000
_cell_angle_beta   90.00000000
_cell_angle_gamma   82.37959700
_symmetry_Int_Tables_number   1
_chemical_formula_structural   Zn(SbO2)4
_chemical_formula_sum   'Zn1 Sb4 O8'
_cell_volume   782.06444275
_cell_formula_units_Z   1
loop_
 _symmetry_equiv_pos_site_id
 _symmetry_equiv_pos_as_xyz
  1  'x, y, z'
loop_
 _atom_site_type_symbol
 _atom_site_label
 _atom_site_symmetry_multiplicity
 _atom_site_fract_x
 _atom_site_fract_y
 _atom_site_fract_z
 _atom_site_occupancy
  Zn  Zn1  1  0.730480  0.127801  0.538818  1
  Sb  Sb2  1  0.950909  0.920755  0.438840  1
  Sb  Sb3  1  0.326909  0.281035  0.414827  1
  Sb  Sb4  1  0.135748  0.408888  0.554469  1
  Sb  Sb5  1  0.510590  0.757595  0.540649  1
  O  O6  1  0.062010  0.610877  0.522737  1
  O  O7  1  0.611797  0.471549  0.595793  1
  O  O8  1  0.850087  0.203152  0.377272  1
  O  O9  1  0.391647  0.092194  0.456734  1
  O  O10  1  0.499497  0.778298  0.462222  1
  O  O11  1  0.211477  0.199908  0.573353  1
  O  O12  1  0.939409  0.927226  0.518955  1
  O  O13  1  0.665680  0.349200  0.505331  1
