# generated using pymatgen
data_HoCoSn2
_symmetry_space_group_name_H-M   'P 1'
_cell_length_a   4.56349033
_cell_length_b   4.34256843
_cell_length_c   29.06400900
_cell_angle_alpha   90.00000000
_cell_angle_beta   90.00000000
_cell_angle_gamma   90.00000000
_symmetry_Int_Tables_number   1
_chemical_formula_structural   HoCoSn2
_chemical_formula_sum   'Ho2 Co2 Sn4'
_cell_volume   575.96928567
_cell_formula_units_Z   2
loop_
 _symmetry_equiv_pos_site_id
 _symmetry_equiv_pos_as_xyz
  1  'x, y, z'
loop_
 _atom_site_type_symbol
 _atom_site_label
 _atom_site_symmetry_multiplicity
 _atom_site_fract_x
 _atom_site_fract_y
 _atom_site_fract_z
 _atom_site_occupancy
  Ho  Ho1  1  0.500000  0.500000  0.561369  1
  Ho  Ho2  1  0.000000  -0.000000  0.438631  1
  Co  Co3  1  -0.000000  0.500000  0.497881  1
  Co  Co4  1  0.500000  -0.000000  0.502119  1
  Sn  Sn5  1  0.000000  0.500000  0.633316  1
  Sn  Sn6  1  0.500000  0.000000  0.366684  1
  Sn  Sn7  1  0.500000  0.500000  0.447825  1
  Sn  Sn8  1  -0.000000  0.000000  0.552175  1
