# generated using pymatgen
data_MgCl2
_symmetry_space_group_name_H-M   'P 1'
_cell_length_a   3.63859075
_cell_length_b   3.63858998
_cell_length_c   22.74645700
_cell_angle_alpha   90.00000000
_cell_angle_beta   90.00000000
_cell_angle_gamma   60.00000171
_symmetry_Int_Tables_number   1
_chemical_formula_structural   MgCl2
_chemical_formula_sum   'Mg1 Cl2'
_cell_volume   260.80188763
_cell_formula_units_Z   1
loop_
 _symmetry_equiv_pos_site_id
 _symmetry_equiv_pos_as_xyz
  1  'x, y, z'
loop_
 _atom_site_type_symbol
 _atom_site_label
 _atom_site_symmetry_multiplicity
 _atom_site_fract_x
 _atom_site_fract_y
 _atom_site_fract_z
 _atom_site_occupancy
  Mg  Mg1  1  -0.000000  -0.000000  0.500000  1
  Cl  Cl2  1  0.333333  0.333333  0.560400  1
  Cl  Cl3  1  0.666667  0.666667  0.439600  1
