# generated using pymatgen
data_MgTi
_symmetry_space_group_name_H-M   'P 1'
_cell_length_a   2.91522722
_cell_length_b   4.88047707
_cell_length_c   29.58844300
_cell_angle_alpha   90.00000000
_cell_angle_beta   90.00000000
_cell_angle_gamma   90.00000000
_symmetry_Int_Tables_number   1
_chemical_formula_structural   MgTi
_chemical_formula_sum   'Mg4 Ti4'
_cell_volume   420.97547867
_cell_formula_units_Z   4
loop_
 _symmetry_equiv_pos_site_id
 _symmetry_equiv_pos_as_xyz
  1  'x, y, z'
loop_
 _atom_site_type_symbol
 _atom_site_label
 _atom_site_symmetry_multiplicity
 _atom_site_fract_x
 _atom_site_fract_y
 _atom_site_fract_z
 _atom_site_occupancy
  Mg  Mg1  1  0.000000  0.000000  0.338874  1
  Mg  Mg2  1  0.500000  -0.000000  0.604277  1
  Mg  Mg3  1  0.000000  0.500000  0.395723  1
  Mg  Mg4  1  0.500000  0.500000  0.661126  1
  Ti  Ti5  1  -0.000000  0.000000  0.514221  1
  Ti  Ti6  1  0.500000  0.000000  0.433997  1
  Ti  Ti7  1  0.000000  0.500000  0.566003  1
  Ti  Ti8  1  0.500000  0.500000  0.485779  1
