# generated using pymatgen
data_NiPSe3
_symmetry_space_group_name_H-M   'P 1'
_cell_length_a   6.15808687
_cell_length_b   6.16203154
_cell_length_c   23.06181800
_cell_angle_alpha   90.00000000
_cell_angle_beta   90.00000000
_cell_angle_gamma   60.02117404
_symmetry_Int_Tables_number   1
_chemical_formula_structural   NiPSe3
_chemical_formula_sum   'Ni2 P2 Se6'
_cell_volume   758.03022626
_cell_formula_units_Z   2
loop_
 _symmetry_equiv_pos_site_id
 _symmetry_equiv_pos_as_xyz
  1  'x, y, z'
loop_
 _atom_site_type_symbol
 _atom_site_label
 _atom_site_symmetry_multiplicity
 _atom_site_fract_x
 _atom_site_fract_y
 _atom_site_fract_z
 _atom_site_occupancy
  Ni  Ni1  1  0.333354  0.333292  0.500000  1
  Ni  Ni2  1  0.666646  0.666708  0.500000  1
  P  P3  1  0.000149  -0.000000  0.451131  1
  P  P4  1  0.999851  -0.000000  0.548869  1
  Se  Se5  1  0.641554  -0.000000  0.432678  1
  Se  Se6  1  0.358446  -0.000000  0.567322  1
  Se  Se7  1  0.358813  0.641418  0.432743  1
  Se  Se8  1  0.000231  0.358582  0.432743  1
  Se  Se9  1  0.641187  0.358582  0.567257  1
  Se  Se10  1  0.999769  0.641418  0.567257  1
