# generated using pymatgen
data_ErTe3
_symmetry_space_group_name_H-M   'P 1'
_cell_length_a   4.33514430
_cell_length_b   4.33521046
_cell_length_c   28.93870516
_cell_angle_alpha   90.00000000
_cell_angle_beta   90.00000000
_cell_angle_gamma   90.00000000
_symmetry_Int_Tables_number   1
_chemical_formula_structural   ErTe3
_chemical_formula_sum   'Er2 Te6'
_cell_volume   543.86716384
_cell_formula_units_Z   2
loop_
 _symmetry_equiv_pos_site_id
 _symmetry_equiv_pos_as_xyz
  1  'x, y, z'
loop_
 _atom_site_type_symbol
 _atom_site_label
 _atom_site_symmetry_multiplicity
 _atom_site_fract_x
 _atom_site_fract_y
 _atom_site_fract_z
 _atom_site_occupancy
  Er  Er1  1  0.500000  0.000000  0.570250  1
  Er  Er2  1  -0.000000  0.500000  0.429750  1
  Te  Te3  1  0.000000  -0.000000  0.344152  1
  Te  Te4  1  0.500000  0.500000  0.655848  1
  Te  Te5  1  -0.000000  0.000000  0.655844  1
  Te  Te6  1  0.500000  0.500000  0.344156  1
  Te  Te7  1  0.500000  -0.000000  0.460997  1
  Te  Te8  1  -0.000000  0.500000  0.539003  1
