# generated using pymatgen
data_U4Te3O4
_symmetry_space_group_name_H-M   'P 1'
_cell_length_a   3.93237527
_cell_length_b   3.93237527
_cell_length_c   31.79907500
_cell_angle_alpha   90.00000000
_cell_angle_beta   90.00000000
_cell_angle_gamma   90.00000000
_symmetry_Int_Tables_number   1
_chemical_formula_structural   U4Te3O4
_chemical_formula_sum   'U4 Te3 O4'
_cell_volume   491.72738959
_cell_formula_units_Z   1
loop_
 _symmetry_equiv_pos_site_id
 _symmetry_equiv_pos_as_xyz
  1  'x, y, z'
loop_
 _atom_site_type_symbol
 _atom_site_label
 _atom_site_symmetry_multiplicity
 _atom_site_fract_x
 _atom_site_fract_y
 _atom_site_fract_z
 _atom_site_occupancy
  U  U1  1  -0.000000  -0.000000  0.441477  1
  U  U2  1  0.000000  -0.000000  0.558523  1
  U  U3  1  0.500000  0.500000  0.637532  1
  U  U4  1  0.500000  0.500000  0.362468  1
  Te  Te5  1  0.500000  0.500000  0.500000  1
  Te  Te6  1  0.000000  -0.000000  0.687976  1
  Te  Te7  1  0.000000  -0.000000  0.312024  1
  O  O8  1  0.500000  -0.000000  0.594849  1
  O  O9  1  0.000000  0.500000  0.594849  1
  O  O10  1  0.500000  -0.000000  0.405151  1
  O  O11  1  0.000000  0.500000  0.405151  1
