# generated using pymatgen
data_H2C2S
_symmetry_space_group_name_H-M   'P 1'
_cell_length_a   2.84266351
_cell_length_b   2.84266343
_cell_length_c   24.09893600
_cell_angle_alpha   90.00000000
_cell_angle_beta   90.00000000
_cell_angle_gamma   120.00000076
_symmetry_Int_Tables_number   1
_chemical_formula_structural   H2C2S
_chemical_formula_sum   'H2 C2 S1'
_cell_volume   168.64730075
_cell_formula_units_Z   1
loop_
 _symmetry_equiv_pos_site_id
 _symmetry_equiv_pos_as_xyz
  1  'x, y, z'
loop_
 _atom_site_type_symbol
 _atom_site_label
 _atom_site_symmetry_multiplicity
 _atom_site_fract_x
 _atom_site_fract_y
 _atom_site_fract_z
 _atom_site_occupancy
  H  H1  1  0.666667  0.333333  0.585248  1
  H  H2  1  0.333333  0.666667  0.414752  1
  C  C3  1  0.333333  0.666667  0.460416  1
  C  C4  1  0.666667  0.333333  0.539584  1
  S  S5  1  -0.000000  0.000000  0.500000  1
