# generated using pymatgen
data_Tl2Te2O5
_symmetry_space_group_name_H-M   'P 1'
_cell_length_a   8.50607094
_cell_length_b   12.04702953
_cell_length_c   26.50454900
_cell_angle_alpha   90.00000000
_cell_angle_beta   90.00000000
_cell_angle_gamma   90.00000000
_symmetry_Int_Tables_number   1
_chemical_formula_structural   Tl2Te2O5
_chemical_formula_sum   'Tl8 Te8 O20'
_cell_volume   2715.99767583
_cell_formula_units_Z   4
loop_
 _symmetry_equiv_pos_site_id
 _symmetry_equiv_pos_as_xyz
  1  'x, y, z'
loop_
 _atom_site_type_symbol
 _atom_site_label
 _atom_site_symmetry_multiplicity
 _atom_site_fract_x
 _atom_site_fract_y
 _atom_site_fract_z
 _atom_site_occupancy
  Tl  Tl1  1  0.096149  0.561508  0.446245  1
  Tl  Tl2  1  0.403851  0.061508  0.553755  1
  Tl  Tl3  1  0.903851  0.438492  0.553755  1
  Tl  Tl4  1  0.596149  0.938492  0.446245  1
  Tl  Tl5  1  0.046498  0.711581  0.622757  1
  Tl  Tl6  1  0.453502  0.211581  0.377243  1
  Tl  Tl7  1  0.953502  0.288419  0.377243  1
  Tl  Tl8  1  0.546498  0.788419  0.622757  1
  Te  Te9  1  0.769199  0.702691  0.517309  1
  Te  Te10  1  0.730801  0.202691  0.482691  1
  Te  Te11  1  0.230801  0.297309  0.482691  1
  Te  Te12  1  0.269199  0.797309  0.517309  1
  Te  Te13  1  0.584012  0.472144  0.446834  1
  Te  Te14  1  0.915988  0.972144  0.553166  1
  Te  Te15  1  0.415988  0.527856  0.553166  1
  Te  Te16  1  0.084012  0.027856  0.446834  1
  O  O17  1  0.974333  0.650325  0.532844  1
  O  O18  1  0.525667  0.150325  0.467156  1
  O  O19  1  0.025667  0.349675  0.467156  1
  O  O20  1  0.474333  0.849675  0.532844  1
  O  O21  1  0.661517  0.626001  0.570210  1
  O  O22  1  0.838483  0.126001  0.429790  1
  O  O23  1  0.338483  0.373999  0.429790  1
  O  O24  1  0.161517  0.873999  0.570210  1
  O  O25  1  0.549725  0.402483  0.512185  1
  O  O26  1  0.950275  0.902483  0.487815  1
  O  O27  1  0.450275  0.597517  0.487815  1
  O  O28  1  0.049725  0.097517  0.512185  1
  O  O29  1  0.695848  0.327634  0.428761  1
  O  O30  1  0.804152  0.827634  0.571239  1
  O  O31  1  0.304152  0.672366  0.571239  1
  O  O32  1  0.195848  0.172366  0.428761  1
  O  O33  1  0.275745  0.956361  0.472233  1
  O  O34  1  0.224255  0.456361  0.527767  1
  O  O35  1  0.724255  0.043639  0.527767  1
  O  O36  1  0.775745  0.543639  0.472233  1
