# generated using pymatgen
data_AgNO3
_symmetry_space_group_name_H-M   'P 1'
_cell_length_a   5.24344288
_cell_length_b   5.24344309
_cell_length_c   20.97333100
_cell_angle_alpha   90.00000000
_cell_angle_beta   90.00000000
_cell_angle_gamma   60.00000146
_symmetry_Int_Tables_number   1
_chemical_formula_structural   AgNO3
_chemical_formula_sum   'Ag1 N1 O3'
_cell_volume   499.38000508
_cell_formula_units_Z   1
loop_
 _symmetry_equiv_pos_site_id
 _symmetry_equiv_pos_as_xyz
  1  'x, y, z'
loop_
 _atom_site_type_symbol
 _atom_site_label
 _atom_site_symmetry_multiplicity
 _atom_site_fract_x
 _atom_site_fract_y
 _atom_site_fract_z
 _atom_site_occupancy
  Ag  Ag1  1  -0.000000  0.000000  0.499317  1
  N  N2  1  0.666667  0.666667  0.500089  1
  O  O3  1  0.937052  0.594210  0.500198  1
  O  O4  1  0.594210  0.468738  0.500198  1
  O  O5  1  0.468738  0.937052  0.500198  1
