# generated using pymatgen
data_PdSeO3
_symmetry_space_group_name_H-M   'P 1'
_cell_length_a   3.98315395
_cell_length_b   6.52545331
_cell_length_c   24.01163800
_cell_angle_alpha   90.00000000
_cell_angle_beta   90.00000000
_cell_angle_gamma   90.00000000
_symmetry_Int_Tables_number   1
_chemical_formula_structural   PdSeO3
_chemical_formula_sum   'Pd2 Se2 O6'
_cell_volume   624.10773661
_cell_formula_units_Z   2
loop_
 _symmetry_equiv_pos_site_id
 _symmetry_equiv_pos_as_xyz
  1  'x, y, z'
loop_
 _atom_site_type_symbol
 _atom_site_label
 _atom_site_symmetry_multiplicity
 _atom_site_fract_x
 _atom_site_fract_y
 _atom_site_fract_z
 _atom_site_occupancy
  Pd  Pd1  1  0.000000  0.000000  0.500000  1
  Pd  Pd2  1  0.000000  0.500000  0.500000  1
  Se  Se3  1  0.500936  0.750000  0.416749  1
  Se  Se4  1  0.499064  0.250000  0.583251  1
  O  O5  1  0.746360  0.039696  0.573177  1
  O  O6  1  0.710073  0.750000  0.485082  1
  O  O7  1  0.253640  0.960304  0.426823  1
  O  O8  1  0.253640  0.539696  0.426823  1
  O  O9  1  0.289927  0.250000  0.514918  1
  O  O10  1  0.746360  0.460304  0.573177  1
