# generated using pymatgen
data_CuSbSe2
_symmetry_space_group_name_H-M   'P 1'
_cell_length_a   3.99753739
_cell_length_b   6.44765343
_cell_length_c   25.21363656
_cell_angle_alpha   90.00000000
_cell_angle_beta   90.00000000
_cell_angle_gamma   90.00000000
_symmetry_Int_Tables_number   1
_chemical_formula_structural   CuSbSe2
_chemical_formula_sum   'Cu2 Sb2 Se4'
_cell_volume   649.87481747
_cell_formula_units_Z   2
loop_
 _symmetry_equiv_pos_site_id
 _symmetry_equiv_pos_as_xyz
  1  'x, y, z'
loop_
 _atom_site_type_symbol
 _atom_site_label
 _atom_site_symmetry_multiplicity
 _atom_site_fract_x
 _atom_site_fract_y
 _atom_site_fract_z
 _atom_site_occupancy
  Cu  Cu1  1  0.500000  0.741162  0.452915  1
  Cu  Cu2  1  0.500000  0.241162  0.547085  1
  Sb  Sb3  1  -0.000000  0.742550  0.609444  1
  Sb  Sb4  1  -0.000000  0.242550  0.390556  1
  Se  Se5  1  0.500000  0.616076  0.543413  1
  Se  Se6  1  0.000000  0.630639  0.408031  1
  Se  Se7  1  0.000000  0.130639  0.591969  1
  Se  Se8  1  0.500000  0.116076  0.456587  1
