# generated using pymatgen
data_Ta3(OF)5
_symmetry_space_group_name_H-M   'P 1'
_cell_length_a   3.93683679
_cell_length_b   4.00671502
_cell_length_c   31.57749400
_cell_angle_alpha   90.00000000
_cell_angle_beta   90.00000000
_cell_angle_gamma   90.00000000
_symmetry_Int_Tables_number   1
_chemical_formula_structural   Ta3(OF)5
_chemical_formula_sum   'Ta3 O5 F5'
_cell_volume   498.09654113
_cell_formula_units_Z   1
loop_
 _symmetry_equiv_pos_site_id
 _symmetry_equiv_pos_as_xyz
  1  'x, y, z'
loop_
 _atom_site_type_symbol
 _atom_site_label
 _atom_site_symmetry_multiplicity
 _atom_site_fract_x
 _atom_site_fract_y
 _atom_site_fract_z
 _atom_site_occupancy
  Ta  Ta1  1  0.000000  0.500000  0.500000  1
  Ta  Ta2  1  -0.000000  0.500000  0.622955  1
  Ta  Ta3  1  0.000000  0.500000  0.377045  1
  O  O4  1  0.500000  0.500000  0.377829  1
  O  O5  1  -0.000000  0.000000  0.500000  1
  O  O6  1  -0.000000  0.500000  0.561550  1
  O  O7  1  -0.000000  0.500000  0.438450  1
  O  O8  1  0.500000  0.500000  0.622171  1
  F  F9  1  -0.000000  0.000000  0.623904  1
  F  F10  1  0.000000  0.500000  0.683198  1
  F  F11  1  -0.000000  0.500000  0.316802  1
  F  F12  1  0.500000  0.500000  0.500000  1
  F  F13  1  -0.000000  0.000000  0.376096  1
