# generated using pymatgen
data_PdI2
_symmetry_space_group_name_H-M   'P 1'
_cell_length_a   6.99733575
_cell_length_b   8.50919069
_cell_length_c   25.96192500
_cell_angle_alpha   90.00000000
_cell_angle_beta   90.00000000
_cell_angle_gamma   90.00000000
_symmetry_Int_Tables_number   1
_chemical_formula_structural   PdI2
_chemical_formula_sum   'Pd4 I8'
_cell_volume   1545.81622082
_cell_formula_units_Z   4
loop_
 _symmetry_equiv_pos_site_id
 _symmetry_equiv_pos_as_xyz
  1  'x, y, z'
loop_
 _atom_site_type_symbol
 _atom_site_label
 _atom_site_symmetry_multiplicity
 _atom_site_fract_x
 _atom_site_fract_y
 _atom_site_fract_z
 _atom_site_occupancy
  Pd  Pd1  1  0.944427  0.631934  0.440201  1
  Pd  Pd2  1  0.555573  0.131934  0.559799  1
  Pd  Pd3  1  0.055573  0.368066  0.559799  1
  Pd  Pd4  1  0.444427  0.868066  0.440201  1
  I  I5  1  0.269823  0.086594  0.495434  1
  I  I6  1  0.230177  0.586594  0.504566  1
  I  I7  1  0.730177  0.913406  0.504566  1
  I  I8  1  0.769823  0.413406  0.495434  1
  I  I9  1  0.364539  0.334767  0.617790  1
  I  I10  1  0.135461  0.834767  0.382210  1
  I  I11  1  0.635461  0.665233  0.382210  1
  I  I12  1  0.864539  0.165233  0.617790  1
