# generated using pymatgen
data_Ti3(HO2)2
_symmetry_space_group_name_H-M   'P 1'
_cell_length_a   3.02049773
_cell_length_b   3.02425996
_cell_length_c   29.32029900
_cell_angle_alpha   90.00000000
_cell_angle_beta   90.00000000
_cell_angle_gamma   119.95884596
_symmetry_Int_Tables_number   1
_chemical_formula_structural   Ti3(HO2)2
_chemical_formula_sum   'Ti3 H2 O4'
_cell_volume   232.04734853
_cell_formula_units_Z   1
loop_
 _symmetry_equiv_pos_site_id
 _symmetry_equiv_pos_as_xyz
  1  'x, y, z'
loop_
 _atom_site_type_symbol
 _atom_site_label
 _atom_site_symmetry_multiplicity
 _atom_site_fract_x
 _atom_site_fract_y
 _atom_site_fract_z
 _atom_site_occupancy
  Ti  Ti1  1  0.999661  0.999321  0.417355  1
  Ti  Ti2  1  0.332165  0.664329  0.582642  1
  Ti  Ti3  1  0.665901  0.331801  0.500004  1
  H  H4  1  0.665232  0.330464  0.658501  1
  H  H5  1  0.666583  0.333165  0.341496  1
  O  O6  1  0.665309  0.330618  0.624760  1
  O  O7  1  0.999046  0.998092  0.540579  1
  O  O8  1  0.332784  0.665569  0.459424  1
  O  O9  1  0.666536  0.333073  0.375238  1
