# generated using pymatgen
data_ErSeI
_symmetry_space_group_name_H-M   'P 1'
_cell_length_a   4.17469099
_cell_length_b   5.57063480
_cell_length_c   26.64916200
_cell_angle_alpha   90.00000000
_cell_angle_beta   90.00000000
_cell_angle_gamma   90.00000000
_symmetry_Int_Tables_number   1
_chemical_formula_structural   ErSeI
_chemical_formula_sum   'Er2 Se2 I2'
_cell_volume   619.74435464
_cell_formula_units_Z   2
loop_
 _symmetry_equiv_pos_site_id
 _symmetry_equiv_pos_as_xyz
  1  'x, y, z'
loop_
 _atom_site_type_symbol
 _atom_site_label
 _atom_site_symmetry_multiplicity
 _atom_site_fract_x
 _atom_site_fract_y
 _atom_site_fract_z
 _atom_site_occupancy
  Er  Er1  1  0.500000  -0.000000  0.456971  1
  Er  Er2  1  -0.000000  0.500000  0.543029  1
  Se  Se3  1  0.500000  0.500000  0.470600  1
  Se  Se4  1  0.000000  0.000000  0.529400  1
  I  I5  1  -0.000000  0.000000  0.375614  1
  I  I6  1  0.500000  0.500000  0.624386  1
