# generated using pymatgen
data_Ba2Co3O7
_symmetry_space_group_name_H-M   'P 1'
_cell_length_a   3.72716369
_cell_length_b   3.75940713
_cell_length_c   29.71085100
_cell_angle_alpha   90.00000000
_cell_angle_beta   90.00000000
_cell_angle_gamma   89.98575580
_symmetry_Int_Tables_number   1
_chemical_formula_structural   Ba2Co3O7
_chemical_formula_sum   'Ba2 Co3 O7'
_cell_volume   416.30622496
_cell_formula_units_Z   1
loop_
 _symmetry_equiv_pos_site_id
 _symmetry_equiv_pos_as_xyz
  1  'x, y, z'
loop_
 _atom_site_type_symbol
 _atom_site_label
 _atom_site_symmetry_multiplicity
 _atom_site_fract_x
 _atom_site_fract_y
 _atom_site_fract_z
 _atom_site_occupancy
  Ba  Ba1  1  0.515588  0.507193  0.417547  1
  Ba  Ba2  1  0.519141  0.507205  0.582645  1
  Co  Co3  1  0.015547  0.007129  0.339004  1
  Co  Co4  1  0.019727  0.006981  0.661032  1
  Co  Co5  1  0.016372  0.007180  0.499976  1
  O  O6  1  0.015404  0.507155  0.499932  1
  O  O7  1  0.515551  0.006902  0.346244  1
  O  O8  1  0.519578  0.006900  0.653638  1
  O  O9  1  0.015584  0.507036  0.344365  1
  O  O10  1  0.019578  0.507128  0.655574  1
  O  O11  1  0.015515  0.007128  0.439408  1
  O  O12  1  0.019076  0.007144  0.560636  1
