# generated using pymatgen
data_CuSeO3
_symmetry_space_group_name_H-M   'P 1'
_cell_length_a   4.70387787
_cell_length_b   10.58991611
_cell_length_c   27.24758600
_cell_angle_alpha   90.00000000
_cell_angle_beta   90.00000000
_cell_angle_gamma   92.32837706
_symmetry_Int_Tables_number   1
_chemical_formula_structural   CuSeO3
_chemical_formula_sum   'Cu6 Se6 O18'
_cell_volume   1356.18172035
_cell_formula_units_Z   6
loop_
 _symmetry_equiv_pos_site_id
 _symmetry_equiv_pos_as_xyz
  1  'x, y, z'
loop_
 _atom_site_type_symbol
 _atom_site_label
 _atom_site_symmetry_multiplicity
 _atom_site_fract_x
 _atom_site_fract_y
 _atom_site_fract_z
 _atom_site_occupancy
  Cu  Cu1  1  0.482955  0.087879  0.504896  1
  Cu  Cu2  1  0.926108  0.050633  0.604790  1
  Cu  Cu3  1  0.952550  0.835783  0.500000  1
  Cu  Cu4  1  0.422145  0.583686  0.495104  1
  Cu  Cu5  1  0.952550  0.335783  0.500000  1
  Cu  Cu6  1  0.978992  0.620932  0.395210  1
  Se  Se7  1  0.370695  0.853718  0.591890  1
  Se  Se8  1  0.397639  0.267353  0.584708  1
  Se  Se9  1  0.534405  0.817847  0.408110  1
  Se  Se10  1  0.980312  0.085519  0.426557  1
  Se  Se11  1  0.507461  0.404212  0.415292  1
  Se  Se12  1  0.924788  0.586046  0.573443  1
  O  O13  1  0.837485  0.009106  0.479489  1
  O  O14  1  0.251478  0.234232  0.524886  1
  O  O15  1  0.244188  0.962140  0.632195  1
  O  O16  1  0.568355  0.593888  0.562060  1
  O  O17  1  0.997233  0.431079  0.560354  1
  O  O18  1  0.636870  0.144792  0.569810  1
  O  O19  1  0.336746  0.077677  0.437940  1
  O  O20  1  0.733379  0.887933  0.591006  1
  O  O21  1  0.653623  0.437333  0.475114  1
  O  O22  1  0.266748  0.920237  0.535316  1
  O  O23  1  0.143282  0.205427  0.622111  1
  O  O24  1  0.761818  0.466139  0.377889  1
  O  O25  1  0.171722  0.783632  0.408994  1
  O  O26  1  0.638352  0.751328  0.464684  1
  O  O27  1  0.268230  0.526774  0.430190  1
  O  O28  1  0.067615  0.662459  0.520511  1
  O  O29  1  0.660912  0.709425  0.367805  1
  O  O30  1  0.907868  0.240486  0.439646  1
