# generated using pymatgen
data_PdN
_symmetry_space_group_name_H-M   'P 1'
_cell_length_a   3.37401003
_cell_length_b   3.37292108
_cell_length_c   20.00000000
_cell_angle_alpha   90.00000000
_cell_angle_beta   90.00000000
_cell_angle_gamma   120.01068046
_symmetry_Int_Tables_number   1
_chemical_formula_structural   PdN
_chemical_formula_sum   'Pd1 N1'
_cell_volume   197.09083358
_cell_formula_units_Z   1
loop_
 _symmetry_equiv_pos_site_id
 _symmetry_equiv_pos_as_xyz
  1  'x, y, z'
loop_
 _atom_site_type_symbol
 _atom_site_label
 _atom_site_symmetry_multiplicity
 _atom_site_fract_x
 _atom_site_fract_y
 _atom_site_fract_z
 _atom_site_occupancy
  Pd  Pd1  1  0.333342  0.666685  0.500000  1
  N  N2  1  0.666771  0.333541  0.500000  1
