# generated using pymatgen
data_Zn2Ag2O5
_symmetry_space_group_name_H-M   'P 1'
_cell_length_a   3.65674205
_cell_length_b   6.31563384
_cell_length_c   29.04446800
_cell_angle_alpha   90.00000000
_cell_angle_beta   90.00000000
_cell_angle_gamma   90.00300605
_symmetry_Int_Tables_number   1
_chemical_formula_structural   Zn2Ag2O5
_chemical_formula_sum   'Zn4 Ag4 O10'
_cell_volume   670.77164169
_cell_formula_units_Z   2
loop_
 _symmetry_equiv_pos_site_id
 _symmetry_equiv_pos_as_xyz
  1  'x, y, z'
loop_
 _atom_site_type_symbol
 _atom_site_label
 _atom_site_symmetry_multiplicity
 _atom_site_fract_x
 _atom_site_fract_y
 _atom_site_fract_z
 _atom_site_occupancy
  Zn  Zn1  1  0.499867  0.324732  0.552900  1
  Zn  Zn2  1  0.499932  0.645854  0.621401  1
  Zn  Zn3  1  0.499980  0.828346  0.447115  1
  Zn  Zn4  1  0.499873  0.150024  0.378297  1
  Ag  Ag5  1  0.999904  0.340381  0.463855  1
  Ag  Ag6  1  0.999905  0.733721  0.349316  1
  Ag  Ag7  1  0.999896  0.230148  0.650803  1
  Ag  Ag8  1  -0.000015  0.839294  0.536295  1
  O  O9  1  0.999857  0.443141  0.396135  1
  O  O10  1  0.999890  0.266481  0.363520  1
  O  O11  1  0.999940  0.761658  0.636478  1
  O  O12  1  0.999869  0.228491  0.531921  1
  O  O13  1  0.499914  0.337909  0.624426  1
  O  O14  1  0.499912  0.647226  0.552857  1
  O  O15  1  0.999972  0.732276  0.468081  1
  O  O16  1  0.499894  0.150824  0.446944  1
  O  O17  1  0.999920  0.939785  0.604100  1
  O  O18  1  0.499946  0.841903  0.375557  1
