# generated using pymatgen
data_MgGa2
_symmetry_space_group_name_H-M   'P 1'
_cell_length_a   2.97188770
_cell_length_b   2.97188818
_cell_length_c   24.95384800
_cell_angle_alpha   90.00000000
_cell_angle_beta   90.00000000
_cell_angle_gamma   120.00000517
_symmetry_Int_Tables_number   1
_chemical_formula_structural   MgGa2
_chemical_formula_sum   'Mg1 Ga2'
_cell_volume   190.86794308
_cell_formula_units_Z   1
loop_
 _symmetry_equiv_pos_site_id
 _symmetry_equiv_pos_as_xyz
  1  'x, y, z'
loop_
 _atom_site_type_symbol
 _atom_site_label
 _atom_site_symmetry_multiplicity
 _atom_site_fract_x
 _atom_site_fract_y
 _atom_site_fract_z
 _atom_site_occupancy
  Mg  Mg1  1  -0.000000  0.000000  0.500000  1
  Ga  Ga2  1  0.333333  0.666667  0.399836  1
  Ga  Ga3  1  0.333333  0.666667  0.600164  1
