# generated using pymatgen
data_U(HO2)2
_symmetry_space_group_name_H-M   'P 1'
_cell_length_a   5.42803749
_cell_length_b   5.84781864
_cell_length_c   25.47773600
_cell_angle_alpha   90.00000000
_cell_angle_beta   90.00000000
_cell_angle_gamma   90.00000000
_symmetry_Int_Tables_number   1
_chemical_formula_structural   U(HO2)2
_chemical_formula_sum   'U2 H4 O8'
_cell_volume   808.71885185
_cell_formula_units_Z   2
loop_
 _symmetry_equiv_pos_site_id
 _symmetry_equiv_pos_as_xyz
  1  'x, y, z'
loop_
 _atom_site_type_symbol
 _atom_site_label
 _atom_site_symmetry_multiplicity
 _atom_site_fract_x
 _atom_site_fract_y
 _atom_site_fract_z
 _atom_site_occupancy
  U  U1  1  0.500000  0.409025  0.500000  1
  U  U2  1  -0.000000  0.909025  0.500000  1
  H  H3  1  0.295471  0.526640  0.406141  1
  H  H4  1  0.795471  0.791410  0.593859  1
  H  H5  1  0.704529  0.291410  0.593859  1
  H  H6  1  0.204529  0.026640  0.406141  1
  O  O7  1  0.329713  0.384892  0.425560  1
  O  O8  1  0.829713  0.933159  0.574440  1
  O  O9  1  0.670287  0.433159  0.574440  1
  O  O10  1  0.170287  0.884892  0.425560  1
  O  O11  1  0.805866  0.172958  0.476668  1
  O  O12  1  0.305866  0.145092  0.523332  1
  O  O13  1  0.194134  0.645092  0.523332  1
  O  O14  1  0.694134  0.672958  0.476668  1
