# generated using pymatgen
data_UTe3
_symmetry_space_group_name_H-M   'P 1'
_cell_length_a   4.40155910
_cell_length_b   4.45426392
_cell_length_c   28.82106000
_cell_angle_alpha   90.00000000
_cell_angle_beta   90.00000000
_cell_angle_gamma   90.00000000
_symmetry_Int_Tables_number   1
_chemical_formula_structural   UTe3
_chemical_formula_sum   'U2 Te6'
_cell_volume   565.05722582
_cell_formula_units_Z   2
loop_
 _symmetry_equiv_pos_site_id
 _symmetry_equiv_pos_as_xyz
  1  'x, y, z'
loop_
 _atom_site_type_symbol
 _atom_site_label
 _atom_site_symmetry_multiplicity
 _atom_site_fract_x
 _atom_site_fract_y
 _atom_site_fract_z
 _atom_site_occupancy
  U  U1  1  -0.000000  0.000000  0.427588  1
  U  U2  1  0.500000  0.500000  0.572412  1
  Te  Te3  1  -0.000000  0.000000  0.540031  1
  Te  Te4  1  0.500000  0.500000  0.459969  1
  Te  Te5  1  0.000000  0.500000  0.347125  1
  Te  Te6  1  0.500000  0.000000  0.652875  1
  Te  Te7  1  0.000000  0.500000  0.653394  1
  Te  Te8  1  0.500000  0.000000  0.346606  1
