# generated using pymatgen
data_KSnN3
_symmetry_space_group_name_H-M   'P 1'
_cell_length_a   6.83646983
_cell_length_b   6.77384379
_cell_length_c   25.95925200
_cell_angle_alpha   90.00000000
_cell_angle_beta   90.00000000
_cell_angle_gamma   119.75519198
_symmetry_Int_Tables_number   1
_chemical_formula_structural   KSnN3
_chemical_formula_sum   'K2 Sn2 N6'
_cell_volume   1043.65256860
_cell_formula_units_Z   2
loop_
 _symmetry_equiv_pos_site_id
 _symmetry_equiv_pos_as_xyz
  1  'x, y, z'
loop_
 _atom_site_type_symbol
 _atom_site_label
 _atom_site_symmetry_multiplicity
 _atom_site_fract_x
 _atom_site_fract_y
 _atom_site_fract_z
 _atom_site_occupancy
  K  K1  1  0.330878  0.666710  0.526385  1
  K  K2  1  0.669122  0.333290  0.473615  1
  Sn  Sn3  1  0.332182  0.665731  0.381426  1
  Sn  Sn4  1  0.667818  0.334269  0.618574  1
  N  N5  1  0.070946  0.416421  0.429671  1
  N  N6  1  0.581561  0.652598  0.429482  1
  N  N7  1  0.346415  0.931066  0.429403  1
  N  N8  1  0.929054  0.583579  0.570329  1
  N  N9  1  0.418439  0.347402  0.570518  1
  N  N10  1  0.653585  0.068934  0.570597  1
