# generated using pymatgen
data_CdCl4
_symmetry_space_group_name_H-M   'P 1'
_cell_length_a   7.35641282
_cell_length_b   5.24754487
_cell_length_c   24.80938800
_cell_angle_alpha   90.00000000
_cell_angle_beta   90.00000000
_cell_angle_gamma   90.00000000
_symmetry_Int_Tables_number   1
_chemical_formula_structural   CdCl4
_chemical_formula_sum   'Cd2 Cl8'
_cell_volume   957.71944357
_cell_formula_units_Z   2
loop_
 _symmetry_equiv_pos_site_id
 _symmetry_equiv_pos_as_xyz
  1  'x, y, z'
loop_
 _atom_site_type_symbol
 _atom_site_label
 _atom_site_symmetry_multiplicity
 _atom_site_fract_x
 _atom_site_fract_y
 _atom_site_fract_z
 _atom_site_occupancy
  Cd  Cd1  1  0.500000  -0.000000  0.500000  1
  Cd  Cd2  1  0.000000  0.500000  0.500000  1
  Cl  Cl3  1  0.250000  0.750000  0.560933  1
  Cl  Cl4  1  0.250000  0.250000  0.439067  1
  Cl  Cl5  1  0.750000  0.250000  0.439067  1
  Cl  Cl6  1  0.750000  0.750000  0.560933  1
  Cl  Cl7  1  0.500000  0.339865  0.574060  1
  Cl  Cl8  1  0.500000  0.660135  0.425940  1
  Cl  Cl9  1  0.000000  0.839865  0.425940  1
  Cl  Cl10  1  -0.000000  0.160135  0.574060  1
