# generated using pymatgen
data_PbClF
_symmetry_space_group_name_H-M   'P 1'
_cell_length_a   5.83120492
_cell_length_b   5.83120491
_cell_length_c   21.29756664
_cell_angle_alpha   90.01620788
_cell_angle_beta   90.01620789
_cell_angle_gamma   90.01866608
_symmetry_Int_Tables_number   1
_chemical_formula_structural   PbClF
_chemical_formula_sum   'Pb2 Cl2 F2'
_cell_volume   724.18001315
_cell_formula_units_Z   2
loop_
 _symmetry_equiv_pos_site_id
 _symmetry_equiv_pos_as_xyz
  1  'x, y, z'
loop_
 _atom_site_type_symbol
 _atom_site_label
 _atom_site_symmetry_multiplicity
 _atom_site_fract_x
 _atom_site_fract_y
 _atom_site_fract_z
 _atom_site_occupancy
  Pb  Pb1  1  0.249636  0.249636  0.540155  1
  Pb  Pb2  1  0.749599  0.749599  0.459845  1
  Cl  Cl3  1  0.249614  0.749621  0.500000  1
  Cl  Cl4  1  0.749621  0.249614  0.500000  1
  F  F5  1  0.749620  0.749620  0.362753  1
  F  F6  1  0.249615  0.249615  0.637247  1
