# generated using pymatgen
data_TaTe4Ir
_symmetry_space_group_name_H-M   'P 1'
_cell_length_a   3.80608530
_cell_length_b   12.57340572
_cell_length_c   23.99739200
_cell_angle_alpha   90.00000000
_cell_angle_beta   90.00000000
_cell_angle_gamma   90.00000000
_symmetry_Int_Tables_number   1
_chemical_formula_structural   TaTe4Ir
_chemical_formula_sum   'Ta2 Te8 Ir2'
_cell_volume   1148.40610534
_cell_formula_units_Z   2
loop_
 _symmetry_equiv_pos_site_id
 _symmetry_equiv_pos_as_xyz
  1  'x, y, z'
loop_
 _atom_site_type_symbol
 _atom_site_label
 _atom_site_symmetry_multiplicity
 _atom_site_fract_x
 _atom_site_fract_y
 _atom_site_fract_z
 _atom_site_occupancy
  Ta  Ta1  1  -0.000000  0.051336  0.504102  1
  Ta  Ta2  1  0.500000  0.730182  0.496301  1
  Te  Te3  1  0.500000  0.104868  0.584080  1
  Te  Te4  1  0.000000  0.847896  0.562619  1
  Te  Te5  1  -0.000000  0.677481  0.416209  1
  Te  Te6  1  0.500000  0.435058  0.442724  1
  Te  Te7  1  0.500000  0.933575  0.437862  1
  Te  Te8  1  0.000000  0.192247  0.420721  1
  Te  Te9  1  0.000000  0.346119  0.556722  1
  Te  Te10  1  0.500000  0.588001  0.579049  1
  Ir  Ir11  1  -0.000000  0.535481  0.501671  1
  Ir  Ir12  1  0.500000  0.245590  0.497940  1
