# generated using pymatgen
data_Te2Pd3Pb2
_symmetry_space_group_name_H-M   'P 1'
_cell_length_a   5.81026323
_cell_length_b   8.82467222
_cell_length_c   24.26193500
_cell_angle_alpha   90.00000000
_cell_angle_beta   90.00000000
_cell_angle_gamma   90.00000000
_symmetry_Int_Tables_number   1
_chemical_formula_structural   Te2Pd3Pb2
_chemical_formula_sum   'Te4 Pd6 Pb4'
_cell_volume   1243.99841276
_cell_formula_units_Z   2
loop_
 _symmetry_equiv_pos_site_id
 _symmetry_equiv_pos_as_xyz
  1  'x, y, z'
loop_
 _atom_site_type_symbol
 _atom_site_label
 _atom_site_symmetry_multiplicity
 _atom_site_fract_x
 _atom_site_fract_y
 _atom_site_fract_z
 _atom_site_occupancy
  Te  Te1  1  0.500000  0.283960  0.591008  1
  Te  Te2  1  0.000000  0.783960  0.408992  1
  Te  Te3  1  0.500000  0.716040  0.591008  1
  Te  Te4  1  0.000000  0.216040  0.408992  1
  Pd  Pd5  1  0.250000  0.250000  0.500000  1
  Pd  Pd6  1  0.000000  0.500000  0.445296  1
  Pd  Pd7  1  0.250000  0.750000  0.500000  1
  Pd  Pd8  1  0.750000  0.250000  0.500000  1
  Pd  Pd9  1  0.750000  0.750000  0.500000  1
  Pd  Pd10  1  0.500000  0.000000  0.554704  1
  Pb  Pb11  1  0.500000  0.000000  0.434571  1
  Pb  Pb12  1  0.000000  0.500000  0.565429  1
  Pb  Pb13  1  0.500000  0.500000  0.445978  1
  Pb  Pb14  1  0.000000  0.000000  0.554022  1
