# generated using pymatgen
data_Ho(CuS)2
_symmetry_space_group_name_H-M   'P 1'
_cell_length_a   3.87839427
_cell_length_b   3.87839449
_cell_length_c   24.29099700
_cell_angle_alpha   90.00000000
_cell_angle_beta   90.00000000
_cell_angle_gamma   59.96924181
_symmetry_Int_Tables_number   1
_chemical_formula_structural   Ho(CuS)2
_chemical_formula_sum   'Ho1 Cu2 S2'
_cell_volume   316.33352491
_cell_formula_units_Z   1
loop_
 _symmetry_equiv_pos_site_id
 _symmetry_equiv_pos_as_xyz
  1  'x, y, z'
loop_
 _atom_site_type_symbol
 _atom_site_label
 _atom_site_symmetry_multiplicity
 _atom_site_fract_x
 _atom_site_fract_y
 _atom_site_fract_z
 _atom_site_occupancy
  Ho  Ho1  1  -0.000000  0.000000  0.500000  1
  Cu  Cu2  1  0.333385  0.333385  0.578321  1
  Cu  Cu3  1  0.666615  0.666615  0.421679  1
  S  S4  1  0.333246  0.333246  0.424360  1
  S  S5  1  0.666754  0.666754  0.575640  1
