# generated using pymatgen
data_ErAg(PSe3)2
_symmetry_space_group_name_H-M   'P 1'
_cell_length_a   6.61969238
_cell_length_b   6.61969258
_cell_length_c   23.67577119
_cell_angle_alpha   90.00000000
_cell_angle_beta   90.00000000
_cell_angle_gamma   120.00000399
_symmetry_Int_Tables_number   1
_chemical_formula_structural   ErAg(PSe3)2
_chemical_formula_sum   'Er1 Ag1 P2 Se6'
_cell_volume   898.48406208
_cell_formula_units_Z   1
loop_
 _symmetry_equiv_pos_site_id
 _symmetry_equiv_pos_as_xyz
  1  'x, y, z'
loop_
 _atom_site_type_symbol
 _atom_site_label
 _atom_site_symmetry_multiplicity
 _atom_site_fract_x
 _atom_site_fract_y
 _atom_site_fract_z
 _atom_site_occupancy
  Er  Er1  1  -0.000000  -0.000000  0.500000  1
  Ag  Ag2  1  0.333333  0.666667  0.500000  1
  P  P3  1  0.666667  0.333333  0.548235  1
  P  P4  1  0.666667  0.333333  0.451765  1
  Se  Se5  1  0.678411  0.658160  0.423607  1
  Se  Se6  1  0.979749  0.321589  0.423607  1
  Se  Se7  1  0.341840  0.020251  0.423607  1
  Se  Se8  1  0.678411  0.020251  0.576393  1
  Se  Se9  1  0.979749  0.658160  0.576393  1
  Se  Se10  1  0.341840  0.321589  0.576393  1
