# generated using pymatgen
data_Mg5(HO3)2
_symmetry_space_group_name_H-M   'P 1'
_cell_length_a   3.02879495
_cell_length_b   3.02879499
_cell_length_c   33.88767800
_cell_angle_alpha   90.00000000
_cell_angle_beta   90.00000000
_cell_angle_gamma   119.99999944
_symmetry_Int_Tables_number   1
_chemical_formula_structural   Mg5(HO3)2
_chemical_formula_sum   'Mg5 H2 O6'
_cell_volume   269.22302324
_cell_formula_units_Z   1
loop_
 _symmetry_equiv_pos_site_id
 _symmetry_equiv_pos_as_xyz
  1  'x, y, z'
loop_
 _atom_site_type_symbol
 _atom_site_label
 _atom_site_symmetry_multiplicity
 _atom_site_fract_x
 _atom_site_fract_y
 _atom_site_fract_z
 _atom_site_occupancy
  Mg  Mg1  1  0.666667  0.333333  0.644821  1
  Mg  Mg2  1  0.333333  0.666667  0.355179  1
  Mg  Mg3  1  0.333333  0.666667  0.572307  1
  Mg  Mg4  1  0.666667  0.333333  0.427693  1
  Mg  Mg5  1  0.000000  -0.000000  0.500000  1
  H  H6  1  0.333333  0.666667  0.704786  1
  H  H7  1  0.666667  0.333333  0.295214  1
  O  O8  1  0.333333  0.666667  0.463847  1
  O  O9  1  0.666667  0.333333  0.536153  1
  O  O10  1  0.000000  -0.000000  0.391558  1
  O  O11  1  0.666667  0.333333  0.323741  1
  O  O12  1  0.333333  0.666667  0.676259  1
  O  O13  1  0.000000  -0.000000  0.608442  1
