# generated using pymatgen
data_Sb2P3(HO3)3
_symmetry_space_group_name_H-M   'P 1'
_cell_length_a   8.92077911
_cell_length_b   9.12371947
_cell_length_c   28.05991400
_cell_angle_alpha   90.00000000
_cell_angle_beta   90.00000000
_cell_angle_gamma   75.13505049
_symmetry_Int_Tables_number   1
_chemical_formula_structural   Sb2P3(HO3)3
_chemical_formula_sum   'Sb4 P6 H6 O18'
_cell_volume   2207.38364564
_cell_formula_units_Z   2
loop_
 _symmetry_equiv_pos_site_id
 _symmetry_equiv_pos_as_xyz
  1  'x, y, z'
loop_
 _atom_site_type_symbol
 _atom_site_label
 _atom_site_symmetry_multiplicity
 _atom_site_fract_x
 _atom_site_fract_y
 _atom_site_fract_z
 _atom_site_occupancy
  Sb  Sb1  1  0.012886  0.723974  0.497353  1
  Sb  Sb2  1  0.987114  0.276026  0.502647  1
  Sb  Sb3  1  0.493044  0.351647  0.427484  1
  Sb  Sb4  1  0.506956  0.648353  0.572516  1
  P  P5  1  0.683858  0.603642  0.466874  1
  P  P6  1  0.316142  0.396358  0.533126  1
  P  P7  1  0.739694  0.049616  0.489369  1
  P  P8  1  0.260306  0.950384  0.510631  1
  P  P9  1  0.791170  0.377533  0.600091  1
  P  P10  1  0.208830  0.622467  0.399909  1
  H  H11  1  0.665782  0.704088  0.428244  1
  H  H12  1  0.334218  0.295912  0.571756  1
  H  H13  1  0.615122  0.043891  0.519519  1
  H  H14  1  0.384878  0.956109  0.480481  1
  H  H15  1  0.778135  0.235934  0.617236  1
  H  H16  1  0.221865  0.764066  0.382764  1
  O  O17  1  0.664754  0.449491  0.447616  1
  O  O18  1  0.335246  0.550509  0.552384  1
  O  O19  1  0.555757  0.681981  0.502621  1
  O  O20  1  0.444243  0.318019  0.497379  1
  O  O21  1  0.845629  0.573444  0.488758  1
  O  O22  1  0.154371  0.426556  0.511242  1
  O  O23  1  0.676904  0.140063  0.444689  1
  O  O24  1  0.323096  0.859937  0.555311  1
  O  O25  1  0.852990  0.113026  0.519410  1
  O  O26  1  0.147010  0.886974  0.480590  1
  O  O27  1  0.814661  0.881233  0.475422  1
  O  O28  1  0.185339  0.118767  0.524578  1
  O  O29  1  0.948694  0.336709  0.570839  1
  O  O30  1  0.051306  0.663291  0.429161  1
  O  O31  1  0.655836  0.427895  0.562248  1
  O  O32  1  0.344164  0.572105  0.437752  1
  O  O33  1  0.784947  0.492784  0.637805  1
  O  O34  1  0.215053  0.507216  0.362195  1
