# generated using pymatgen
data_ZrS3
_symmetry_space_group_name_H-M   'P 1'
_cell_length_a   3.65475265
_cell_length_b   5.18833979
_cell_length_c   25.95012000
_cell_angle_alpha   90.00000000
_cell_angle_beta   90.00000000
_cell_angle_gamma   90.00000000
_symmetry_Int_Tables_number   1
_chemical_formula_structural   ZrS3
_chemical_formula_sum   'Zr2 S6'
_cell_volume   492.06873403
_cell_formula_units_Z   2
loop_
 _symmetry_equiv_pos_site_id
 _symmetry_equiv_pos_as_xyz
  1  'x, y, z'
loop_
 _atom_site_type_symbol
 _atom_site_label
 _atom_site_symmetry_multiplicity
 _atom_site_fract_x
 _atom_site_fract_y
 _atom_site_fract_z
 _atom_site_occupancy
  Zr  Zr1  1  0.750000  0.689377  0.446494  1
  Zr  Zr2  1  0.250000  0.189209  0.553506  1
  S  S3  1  0.750000  0.391118  0.614435  1
  S  S4  1  0.250000  0.487468  0.385565  1
  S  S5  1  0.250000  0.689342  0.518996  1
  S  S6  1  0.750000  0.189244  0.481003  1
  S  S7  1  0.250000  0.889891  0.385274  1
  S  S8  1  0.750000  0.988695  0.614726  1
