# generated using pymatgen
data_SiAs
_symmetry_space_group_name_H-M   'P 1'
_cell_length_a   3.70131064
_cell_length_b   10.86081522
_cell_length_c   24.94510816
_cell_angle_alpha   90.01266899
_cell_angle_beta   90.00000000
_cell_angle_gamma   99.81093165
_symmetry_Int_Tables_number   1
_chemical_formula_structural   SiAs
_chemical_formula_sum   'Si6 As6'
_cell_volume   988.10946521
_cell_formula_units_Z   6
loop_
 _symmetry_equiv_pos_site_id
 _symmetry_equiv_pos_as_xyz
  1  'x, y, z'
loop_
 _atom_site_type_symbol
 _atom_site_label
 _atom_site_symmetry_multiplicity
 _atom_site_fract_x
 _atom_site_fract_y
 _atom_site_fract_z
 _atom_site_occupancy
  Si  Si1  1  0.707650  0.415299  0.543099  1
  Si  Si2  1  0.064874  0.129747  0.456901  1
  Si  Si3  1  0.705165  0.410332  0.448437  1
  Si  Si4  1  0.067358  0.134714  0.551563  1
  Si  Si5  1  0.333043  0.666085  0.487871  1
  Si  Si6  1  0.439480  0.878961  0.512129  1
  As  As7  1  0.814583  0.629164  0.427295  1
  As  As8  1  0.957941  0.915882  0.572705  1
  As  As9  1  0.615131  0.230261  0.597774  1
  As  As10  1  0.157392  0.314785  0.402226  1
  As  As11  1  0.272467  0.544934  0.570614  1
  As  As12  1  0.500056  0.000112  0.429386  1
