# generated using pymatgen
data_Bi4O5F2
_symmetry_space_group_name_H-M   'P 1'
_cell_length_a   5.51092488
_cell_length_b   13.61537816
_cell_length_c   26.04607800
_cell_angle_alpha   90.00000000
_cell_angle_beta   90.00000000
_cell_angle_gamma   90.00000000
_symmetry_Int_Tables_number   1
_chemical_formula_structural   Bi4O5F2
_chemical_formula_sum   'Bi8 O10 F4'
_cell_volume   1954.32386817
_cell_formula_units_Z   2
loop_
 _symmetry_equiv_pos_site_id
 _symmetry_equiv_pos_as_xyz
  1  'x, y, z'
loop_
 _atom_site_type_symbol
 _atom_site_label
 _atom_site_symmetry_multiplicity
 _atom_site_fract_x
 _atom_site_fract_y
 _atom_site_fract_z
 _atom_site_occupancy
  Bi  Bi1  1  0.885829  0.712377  0.451307  1
  Bi  Bi2  1  0.281611  0.969183  0.450088  1
  Bi  Bi3  1  0.614171  0.212377  0.451307  1
  Bi  Bi4  1  0.218389  0.469183  0.450088  1
  Bi  Bi5  1  0.781611  0.530817  0.549912  1
  Bi  Bi6  1  0.385829  0.787623  0.548693  1
  Bi  Bi7  1  0.718389  0.030817  0.549912  1
  Bi  Bi8  1  0.114171  0.287623  0.548693  1
  O  O9  1  0.039711  0.592987  0.494427  1
  O  O10  1  -0.000000  -0.000000  0.500000  1
  O  O11  1  0.187690  0.799075  0.470949  1
  O  O12  1  0.460289  0.092987  0.494427  1
  O  O13  1  0.500000  0.500000  0.500000  1
  O  O14  1  0.312310  0.299075  0.470949  1
  O  O15  1  0.687690  0.700925  0.529051  1
  O  O16  1  0.539711  0.907013  0.505573  1
  O  O17  1  0.812310  0.200925  0.529051  1
  O  O18  1  0.960289  0.407013  0.505573  1
  F  F19  1  0.109881  0.621222  0.395560  1
  F  F20  1  0.609881  0.878778  0.604440  1
  F  F21  1  0.390118  0.121222  0.395560  1
  F  F22  1  0.890119  0.378778  0.604440  1
