# generated using pymatgen
data_ZnTeMoO6
_symmetry_space_group_name_H-M   'P 1'
_cell_length_a   5.04726370
_cell_length_b   5.33714293
_cell_length_c   27.73605700
_cell_angle_alpha   90.00000000
_cell_angle_beta   90.00000000
_cell_angle_gamma   90.00000000
_symmetry_Int_Tables_number   1
_chemical_formula_structural   ZnTeMoO6
_chemical_formula_sum   'Zn2 Te2 Mo2 O12'
_cell_volume   747.15300960
_cell_formula_units_Z   2
loop_
 _symmetry_equiv_pos_site_id
 _symmetry_equiv_pos_as_xyz
  1  'x, y, z'
loop_
 _atom_site_type_symbol
 _atom_site_label
 _atom_site_symmetry_multiplicity
 _atom_site_fract_x
 _atom_site_fract_y
 _atom_site_fract_z
 _atom_site_occupancy
  Zn  Zn1  1  0.500000  0.500000  0.507785  1
  Zn  Zn2  1  -0.000000  -0.000000  0.492215  1
  Te  Te3  1  -0.000000  0.500000  0.420216  1
  Te  Te4  1  0.500000  -0.000000  0.579784  1
  Mo  Mo5  1  -0.000000  0.500000  0.601866  1
  Mo  Mo6  1  0.500000  -0.000000  0.398134  1
  O  O7  1  0.222943  0.325628  0.465790  1
  O  O8  1  0.777057  0.674372  0.465790  1
  O  O9  1  0.734948  0.678563  0.568011  1
  O  O10  1  0.277057  0.825628  0.534210  1
  O  O11  1  0.659416  0.784620  0.360844  1
  O  O12  1  0.840584  0.284620  0.639156  1
  O  O13  1  0.265052  0.321437  0.568011  1
  O  O14  1  0.722943  0.174372  0.534210  1
  O  O15  1  0.234948  0.821437  0.431989  1
  O  O16  1  0.765052  0.178563  0.431989  1
  O  O17  1  0.159416  0.715380  0.639156  1
  O  O18  1  0.340584  0.215380  0.360844  1
