# generated using pymatgen
data_SrBi5O9
_symmetry_space_group_name_H-M   'P 1'
_cell_length_a   4.04553136
_cell_length_b   6.88218412
_cell_length_c   26.88684362
_cell_angle_alpha   89.96736396
_cell_angle_beta   90.02530622
_cell_angle_gamma   90.15203800
_symmetry_Int_Tables_number   1
_chemical_formula_structural   SrBi5O9
_chemical_formula_sum   'Sr1 Bi5 O9'
_cell_volume   748.58313574
_cell_formula_units_Z   1
loop_
 _symmetry_equiv_pos_site_id
 _symmetry_equiv_pos_as_xyz
  1  'x, y, z'
loop_
 _atom_site_type_symbol
 _atom_site_label
 _atom_site_symmetry_multiplicity
 _atom_site_fract_x
 _atom_site_fract_y
 _atom_site_fract_z
 _atom_site_occupancy
  Sr  Sr1  1  0.978706  0.001163  0.497525  1
  Bi  Bi2  1  0.979193  0.650766  0.606211  1
  Bi  Bi3  1  0.478776  0.831521  0.378218  1
  Bi  Bi4  1  0.479670  0.497107  0.496858  1
  Bi  Bi5  1  0.480554  0.192582  0.612027  1
  Bi  Bi6  1  0.976129  0.330810  0.375101  1
  O  O7  1  0.475199  0.496489  0.372877  1
  O  O8  1  0.968663  0.972307  0.597557  1
  O  O9  1  0.979824  0.638772  0.526347  1
  O  O10  1  0.976802  0.344645  0.633555  1
  O  O11  1  0.479320  0.831412  0.454966  1
  O  O12  1  0.980441  0.995949  0.377137  1
  O  O13  1  0.479413  0.538228  0.587231  1
  O  O14  1  0.478691  0.191259  0.532655  1
  O  O15  1  0.976408  0.334211  0.451733  1
