# generated using pymatgen
data_Na2UI6
_symmetry_space_group_name_H-M   'P 1'
_cell_length_a   12.37323161
_cell_length_b   12.37323173
_cell_length_c   28.73154500
_cell_angle_alpha   90.00000000
_cell_angle_beta   90.00000000
_cell_angle_gamma   60.00000034
_symmetry_Int_Tables_number   1
_chemical_formula_structural   Na2UI6
_chemical_formula_sum   'Na4 U2 I12'
_cell_volume   3809.39407827
_cell_formula_units_Z   2
loop_
 _symmetry_equiv_pos_site_id
 _symmetry_equiv_pos_as_xyz
  1  'x, y, z'
loop_
 _atom_site_type_symbol
 _atom_site_label
 _atom_site_symmetry_multiplicity
 _atom_site_fract_x
 _atom_site_fract_y
 _atom_site_fract_z
 _atom_site_occupancy
  Na  Na1  1  0.166949  0.666104  0.513692  1
  Na  Na2  1  -0.000000  0.000000  0.335194  1
  Na  Na3  1  0.666104  0.166949  0.513692  1
  Na  Na4  1  0.166949  0.166949  0.513692  1
  U  U5  1  0.333333  0.333333  0.559666  1
  U  U6  1  -0.000000  0.000000  0.462792  1
  I  I7  1  0.107692  0.446155  0.495435  1
  I  I8  1  0.218002  0.218002  0.616199  1
  I  I9  1  0.115544  0.768913  0.399516  1
  I  I10  1  0.446155  0.446155  0.495435  1
  I  I11  1  0.884427  0.884427  0.522610  1
  I  I12  1  0.768913  0.115544  0.399516  1
  I  I13  1  0.231147  0.884427  0.522610  1
  I  I14  1  0.218002  0.563998  0.616199  1
  I  I15  1  0.446155  0.107692  0.495435  1
  I  I16  1  0.115544  0.115544  0.399516  1
  I  I17  1  0.563998  0.218002  0.616199  1
  I  I18  1  0.884427  0.231147  0.522610  1
