# generated using pymatgen
data_SrVSi2O7
_symmetry_space_group_name_H-M   'P 1'
_cell_length_a   5.46925128
_cell_length_b   7.07551086
_cell_length_c   26.08394000
_cell_angle_alpha   90.00000000
_cell_angle_beta   90.00000000
_cell_angle_gamma   90.00000000
_symmetry_Int_Tables_number   1
_chemical_formula_structural   SrVSi2O7
_chemical_formula_sum   'Sr2 V2 Si4 O14'
_cell_volume   1009.38970639
_cell_formula_units_Z   2
loop_
 _symmetry_equiv_pos_site_id
 _symmetry_equiv_pos_as_xyz
  1  'x, y, z'
loop_
 _atom_site_type_symbol
 _atom_site_label
 _atom_site_symmetry_multiplicity
 _atom_site_fract_x
 _atom_site_fract_y
 _atom_site_fract_z
 _atom_site_occupancy
  Sr  Sr1  1  0.012871  0.250000  0.592870  1
  Sr  Sr2  1  0.012871  0.750000  0.407130  1
  V  V3  1  0.012486  0.250000  0.435648  1
  V  V4  1  0.012486  0.750000  0.564352  1
  Si  Si5  1  0.512912  0.519264  0.438083  1
  Si  Si6  1  0.512912  0.980736  0.438083  1
  Si  Si7  1  0.512912  0.019264  0.561917  1
  Si  Si8  1  0.512912  0.480736  0.561917  1
  O  O9  1  0.769879  0.555369  0.585826  1
  O  O10  1  0.769879  0.444631  0.414174  1
  O  O11  1  0.255431  0.944642  0.585559  1
  O  O12  1  0.255431  0.055358  0.414441  1
  O  O13  1  0.512673  0.750000  0.422533  1
  O  O14  1  0.011680  0.250000  0.499416  1
  O  O15  1  0.769879  0.055369  0.414174  1
  O  O16  1  0.255431  0.555358  0.585559  1
  O  O17  1  0.011680  0.750000  0.500584  1
  O  O18  1  0.512673  0.250000  0.577467  1
  O  O19  1  0.513640  0.000000  0.500000  1
  O  O20  1  0.255431  0.444642  0.414441  1
  O  O21  1  0.769879  0.944631  0.585826  1
  O  O22  1  0.513640  0.500000  0.500000  1
