# generated using pymatgen
data_CeAl3Cu
_symmetry_space_group_name_H-M   'P 1'
_cell_length_a   3.93965906
_cell_length_b   3.93965906
_cell_length_c   23.61400600
_cell_angle_alpha   90.00000000
_cell_angle_beta   90.00000000
_cell_angle_gamma   90.00000000
_symmetry_Int_Tables_number   1
_chemical_formula_structural   CeAl3Cu
_chemical_formula_sum   'Ce1 Al3 Cu1'
_cell_volume   366.51094473
_cell_formula_units_Z   1
loop_
 _symmetry_equiv_pos_site_id
 _symmetry_equiv_pos_as_xyz
  1  'x, y, z'
loop_
 _atom_site_type_symbol
 _atom_site_label
 _atom_site_symmetry_multiplicity
 _atom_site_fract_x
 _atom_site_fract_y
 _atom_site_fract_z
 _atom_site_occupancy
  Ce  Ce1  1  0.500000  0.500000  0.541309  1
  Al  Al2  1  0.000000  0.000000  0.603956  1
  Al  Al3  1  0.000000  0.500000  0.430075  1
  Al  Al4  1  0.500000  0.000000  0.430075  1
  Cu  Cu5  1  0.000000  0.000000  0.494586  1
