# generated using pymatgen
data_Pb3SO6
_symmetry_space_group_name_H-M   'P 1'
_cell_length_a   5.71954417
_cell_length_b   10.06136662
_cell_length_c   25.39888300
_cell_angle_alpha   90.00000000
_cell_angle_beta   90.00000000
_cell_angle_gamma   90.00000000
_symmetry_Int_Tables_number   1
_chemical_formula_structural   Pb3SO6
_chemical_formula_sum   'Pb6 S2 O12'
_cell_volume   1461.61506280
_cell_formula_units_Z   2
loop_
 _symmetry_equiv_pos_site_id
 _symmetry_equiv_pos_as_xyz
  1  'x, y, z'
loop_
 _atom_site_type_symbol
 _atom_site_label
 _atom_site_symmetry_multiplicity
 _atom_site_fract_x
 _atom_site_fract_y
 _atom_site_fract_z
 _atom_site_occupancy
  Pb  Pb1  1  0.750000  0.278095  0.547252  1
  Pb  Pb2  1  0.250000  0.721905  0.452748  1
  Pb  Pb3  1  0.250000  0.278095  0.452748  1
  Pb  Pb4  1  0.750000  0.721905  0.547252  1
  Pb  Pb5  1  0.750000  0.000000  0.451594  1
  Pb  Pb6  1  0.250000  0.000000  0.548406  1
  S  S7  1  0.750000  0.500000  0.428046  1
  S  S8  1  0.250000  0.500000  0.571954  1
  O  O9  1  0.250000  0.377426  0.536382  1
  O  O10  1  0.750000  0.622575  0.463618  1
  O  O11  1  0.750000  0.377426  0.463618  1
  O  O12  1  0.250000  0.622575  0.536382  1
  O  O13  1  0.466008  0.500000  0.602349  1
  O  O14  1  0.966008  0.500000  0.397651  1
  O  O15  1  0.533992  0.500000  0.397651  1
  O  O16  1  0.033992  0.500000  0.602349  1
  O  O17  1  0.500000  0.860691  0.500000  1
  O  O18  1  -0.000000  0.139309  0.500000  1
  O  O19  1  0.500000  0.139309  0.500000  1
  O  O20  1  -0.000000  0.860691  0.500000  1
