# generated using pymatgen
data_Li2Mn3F8
_symmetry_space_group_name_H-M   'P 1'
_cell_length_a   6.39892357
_cell_length_b   6.39892351
_cell_length_c   21.71985365
_cell_angle_alpha   90.00000000
_cell_angle_beta   90.00000000
_cell_angle_gamma   59.99999973
_symmetry_Int_Tables_number   1
_chemical_formula_structural   Li2Mn3F8
_chemical_formula_sum   'Li2 Mn3 F8'
_cell_volume   770.19619146
_cell_formula_units_Z   1
loop_
 _symmetry_equiv_pos_site_id
 _symmetry_equiv_pos_as_xyz
  1  'x, y, z'
loop_
 _atom_site_type_symbol
 _atom_site_label
 _atom_site_symmetry_multiplicity
 _atom_site_fract_x
 _atom_site_fract_y
 _atom_site_fract_z
 _atom_site_occupancy
  Li  Li1  1  0.000000  -0.000000  0.431861  1
  Li  Li2  1  0.000000  -0.000000  0.568139  1
  Mn  Mn3  1  0.500000  -0.000000  0.500000  1
  Mn  Mn4  1  0.500000  0.500000  0.500000  1
  Mn  Mn5  1  0.000000  0.500000  0.500000  1
  F  F6  1  0.668504  0.165748  0.549795  1
  F  F7  1  0.165748  0.165748  0.549795  1
  F  F8  1  0.165748  0.668504  0.549795  1
  F  F9  1  0.333333  0.333333  0.451685  1
  F  F10  1  0.666667  0.666667  0.548315  1
  F  F11  1  0.834252  0.331496  0.450205  1
  F  F12  1  0.834252  0.834252  0.450205  1
  F  F13  1  0.331496  0.834252  0.450205  1
