# generated using pymatgen
data_SiNiSb
_symmetry_space_group_name_H-M   'P 1'
_cell_length_a   4.06983429
_cell_length_b   4.06983429
_cell_length_c   23.74636900
_cell_angle_alpha   90.00000000
_cell_angle_beta   90.00000000
_cell_angle_gamma   90.00000000
_symmetry_Int_Tables_number   1
_chemical_formula_structural   SiNiSb
_chemical_formula_sum   'Si2 Ni2 Sb2'
_cell_volume   393.32419751
_cell_formula_units_Z   2
loop_
 _symmetry_equiv_pos_site_id
 _symmetry_equiv_pos_as_xyz
  1  'x, y, z'
loop_
 _atom_site_type_symbol
 _atom_site_label
 _atom_site_symmetry_multiplicity
 _atom_site_fract_x
 _atom_site_fract_y
 _atom_site_fract_z
 _atom_site_occupancy
  Si  Si1  1  0.500000  0.000000  0.556532  1
  Si  Si2  1  0.000000  0.500000  0.443468  1
  Ni  Ni3  1  0.000000  0.000000  0.500000  1
  Ni  Ni4  1  0.500000  0.500000  0.500000  1
  Sb  Sb5  1  0.500000  0.000000  0.420244  1
  Sb  Sb6  1  -0.000000  0.500000  0.579756  1
