# generated using pymatgen
data_ZnH6(SeO4)2
_symmetry_space_group_name_H-M   'P 1'
_cell_length_a   7.00645788
_cell_length_b   8.42084784
_cell_length_c   26.39037782
_cell_angle_alpha   90.43015762
_cell_angle_beta   90.00000000
_cell_angle_gamma   90.00000000
_symmetry_Int_Tables_number   1
_chemical_formula_structural   ZnH6(SeO4)2
_chemical_formula_sum   'Zn2 H12 Se4 O16'
_cell_volume   1556.99674225
_cell_formula_units_Z   2
loop_
 _symmetry_equiv_pos_site_id
 _symmetry_equiv_pos_as_xyz
  1  'x, y, z'
loop_
 _atom_site_type_symbol
 _atom_site_label
 _atom_site_symmetry_multiplicity
 _atom_site_fract_x
 _atom_site_fract_y
 _atom_site_fract_z
 _atom_site_occupancy
  Zn  Zn1  1  0.500000  -0.000000  0.500000  1
  Zn  Zn2  1  -0.000000  0.500000  0.500000  1
  H  H3  1  0.324639  0.506291  0.554213  1
  H  H4  1  0.501969  0.425177  0.621551  1
  H  H5  1  0.001969  0.074823  0.378449  1
  H  H6  1  0.783441  0.827874  0.472819  1
  H  H7  1  0.824639  0.993709  0.445787  1
  H  H8  1  0.283441  0.672126  0.527181  1
  H  H9  1  0.716559  0.327874  0.472819  1
  H  H10  1  0.175361  0.006291  0.554213  1
  H  H11  1  0.216559  0.172126  0.527181  1
  H  H12  1  0.998031  0.925177  0.621551  1
  H  H13  1  0.498031  0.574823  0.378449  1
  H  H14  1  0.675361  0.493709  0.445787  1
  Se  Se15  1  0.275637  0.742161  0.422536  1
  Se  Se16  1  0.224363  0.242161  0.422536  1
  Se  Se17  1  0.775637  0.757839  0.577464  1
  Se  Se18  1  0.724363  0.257839  0.577464  1
  O  O19  1  0.914621  0.373456  0.568543  1
  O  O20  1  0.222433  0.583049  0.546072  1
  O  O21  1  0.534766  0.419081  0.585485  1
  O  O22  1  0.034766  0.080919  0.414515  1
  O  O23  1  0.722433  0.916951  0.453928  1
  O  O24  1  0.339679  0.800855  0.481450  1
  O  O25  1  0.414621  0.126544  0.431457  1
  O  O26  1  0.839679  0.699145  0.518550  1
  O  O27  1  0.160321  0.300855  0.481450  1
  O  O28  1  0.585379  0.873456  0.568543  1
  O  O29  1  0.660321  0.199145  0.518550  1
  O  O30  1  0.277567  0.083049  0.546072  1
  O  O31  1  0.965234  0.919081  0.585485  1
  O  O32  1  0.465234  0.580919  0.414515  1
  O  O33  1  0.777567  0.416951  0.453928  1
  O  O34  1  0.085379  0.626544  0.431457  1
