# generated using pymatgen
data_SiTe2
_symmetry_space_group_name_H-M   'P 1'
_cell_length_a   3.81791989
_cell_length_b   3.81792004
_cell_length_c   23.27159400
_cell_angle_alpha   90.00000000
_cell_angle_beta   90.00000000
_cell_angle_gamma   119.99999862
_symmetry_Int_Tables_number   1
_chemical_formula_structural   SiTe2
_chemical_formula_sum   'Si1 Te2'
_cell_volume   293.77200634
_cell_formula_units_Z   1
loop_
 _symmetry_equiv_pos_site_id
 _symmetry_equiv_pos_as_xyz
  1  'x, y, z'
loop_
 _atom_site_type_symbol
 _atom_site_label
 _atom_site_symmetry_multiplicity
 _atom_site_fract_x
 _atom_site_fract_y
 _atom_site_fract_z
 _atom_site_occupancy
  Si  Si1  1  0.000000  -0.000000  0.500000  1
  Te  Te2  1  0.333333  0.666667  0.570266  1
  Te  Te3  1  0.666667  0.333333  0.429734  1
