# generated using pymatgen
data_LaClO2
_symmetry_space_group_name_H-M   'P 1'
_cell_length_a   3.56686295
_cell_length_b   6.76971937
_cell_length_c   25.93473000
_cell_angle_alpha   90.00000000
_cell_angle_beta   90.00000000
_cell_angle_gamma   90.00000000
_symmetry_Int_Tables_number   1
_chemical_formula_structural   LaClO2
_chemical_formula_sum   'La2 Cl2 O4'
_cell_volume   626.23713869
_cell_formula_units_Z   2
loop_
 _symmetry_equiv_pos_site_id
 _symmetry_equiv_pos_as_xyz
  1  'x, y, z'
loop_
 _atom_site_type_symbol
 _atom_site_label
 _atom_site_symmetry_multiplicity
 _atom_site_fract_x
 _atom_site_fract_y
 _atom_site_fract_z
 _atom_site_occupancy
  La  La1  1  -0.000000  0.750627  0.535580  1
  La  La2  1  -0.000000  0.249373  0.464420  1
  Cl  Cl3  1  0.500000  0.806582  0.616926  1
  Cl  Cl4  1  0.500000  0.193418  0.383074  1
  O  O5  1  0.500000  0.909208  0.483347  1
  O  O6  1  0.500000  0.090792  0.516653  1
  O  O7  1  0.500000  0.495289  0.529031  1
  O  O8  1  0.500000  0.504711  0.470969  1
