# generated using pymatgen
data_Sr(ClO2)2
_symmetry_space_group_name_H-M   'P 1'
_cell_length_a   5.96228698
_cell_length_b   5.97771189
_cell_length_c   24.26421454
_cell_angle_alpha   90.00000000
_cell_angle_beta   90.00000000
_cell_angle_gamma   90.00000000
_symmetry_Int_Tables_number   1
_chemical_formula_structural   Sr(ClO2)2
_chemical_formula_sum   'Sr2 Cl4 O8'
_cell_volume   864.79683703
_cell_formula_units_Z   2
loop_
 _symmetry_equiv_pos_site_id
 _symmetry_equiv_pos_as_xyz
  1  'x, y, z'
loop_
 _atom_site_type_symbol
 _atom_site_label
 _atom_site_symmetry_multiplicity
 _atom_site_fract_x
 _atom_site_fract_y
 _atom_site_fract_z
 _atom_site_occupancy
  Sr  Sr1  1  0.500000  0.500000  0.500000  1
  Sr  Sr2  1  0.000000  0.000000  0.500000  1
  Cl  Cl3  1  0.000000  0.500000  0.409005  1
  Cl  Cl4  1  0.000000  0.500000  0.590995  1
  Cl  Cl5  1  0.500000  0.000000  0.409005  1
  Cl  Cl6  1  0.500000  0.000000  0.590995  1
  O  O7  1  0.654228  0.155062  0.445963  1
  O  O8  1  0.154228  0.344938  0.445963  1
  O  O9  1  0.345772  0.155062  0.554037  1
  O  O10  1  0.845772  0.344938  0.554037  1
  O  O11  1  0.345772  0.844938  0.445963  1
  O  O12  1  0.654228  0.844938  0.554037  1
  O  O13  1  0.845772  0.655062  0.445963  1
  O  O14  1  0.154228  0.655062  0.554037  1
