# generated using pymatgen
data_VF4
_symmetry_space_group_name_H-M   'P 1'
_cell_length_a   4.91804213
_cell_length_b   9.65755708
_cell_length_c   24.48884100
_cell_angle_alpha   90.00000000
_cell_angle_beta   90.00000000
_cell_angle_gamma   90.00000000
_symmetry_Int_Tables_number   1
_chemical_formula_structural   VF4
_chemical_formula_sum   'V4 F16'
_cell_volume   1163.12866761
_cell_formula_units_Z   4
loop_
 _symmetry_equiv_pos_site_id
 _symmetry_equiv_pos_as_xyz
  1  'x, y, z'
loop_
 _atom_site_type_symbol
 _atom_site_label
 _atom_site_symmetry_multiplicity
 _atom_site_fract_x
 _atom_site_fract_y
 _atom_site_fract_z
 _atom_site_occupancy
  V  V1  1  0.975141  0.317293  0.534655  1
  V  V2  1  0.524859  0.817293  0.534655  1
  V  V3  1  0.475141  0.088995  0.465345  1
  V  V4  1  0.024859  0.588995  0.465345  1
  F  F5  1  0.147327  0.248739  0.590741  1
  F  F6  1  0.352673  0.748739  0.590741  1
  F  F7  1  0.669334  0.382415  0.562604  1
  F  F8  1  0.830666  0.882415  0.562604  1
  F  F9  1  0.370792  0.003253  0.537342  1
  F  F10  1  0.129208  0.503253  0.537342  1
  F  F11  1  0.789437  0.151792  0.511857  1
  F  F12  1  0.710563  0.651792  0.511857  1
  F  F13  1  0.289437  0.254496  0.488143  1
  F  F14  1  0.210563  0.754496  0.488143  1
  F  F15  1  0.870792  0.403034  0.462658  1
  F  F16  1  0.629208  0.903034  0.462658  1
  F  F17  1  0.169334  0.023873  0.437396  1
  F  F18  1  0.330666  0.523873  0.437396  1
  F  F19  1  0.647327  0.157549  0.409259  1
  F  F20  1  0.852673  0.657549  0.409259  1
