# generated using pymatgen
data_V(TeO3)4
_symmetry_space_group_name_H-M   'P 1'
_cell_length_a   5.09457841
_cell_length_b   8.99230968
_cell_length_c   24.28223400
_cell_angle_alpha   90.00000000
_cell_angle_beta   90.00000000
_cell_angle_gamma   88.76959094
_symmetry_Int_Tables_number   1
_chemical_formula_structural   V(TeO3)4
_chemical_formula_sum   'V1 Te4 O12'
_cell_volume   1112.16186135
_cell_formula_units_Z   1
loop_
 _symmetry_equiv_pos_site_id
 _symmetry_equiv_pos_as_xyz
  1  'x, y, z'
loop_
 _atom_site_type_symbol
 _atom_site_label
 _atom_site_symmetry_multiplicity
 _atom_site_fract_x
 _atom_site_fract_y
 _atom_site_fract_z
 _atom_site_occupancy
  V  V1  1  0.064721  0.992495  0.498254  1
  Te  Te2  1  0.024843  0.313685  0.492003  1
  Te  Te3  1  0.545094  0.810193  0.504183  1
  Te  Te4  1  0.073930  0.599965  0.423145  1
  Te  Te5  1  0.524665  0.467897  0.583061  1
  O  O6  1  0.761715  0.954701  0.538739  1
  O  O7  1  0.819703  0.490732  0.466813  1
  O  O8  1  0.723789  0.314328  0.547266  1
  O  O9  1  0.871706  0.787016  0.457871  1
  O  O10  1  0.193799  0.462124  0.547132  1
  O  O11  1  0.669674  0.649919  0.558789  1
  O  O12  1  0.358769  0.945565  0.453837  1
  O  O13  1  0.901107  0.147400  0.451721  1
  O  O14  1  0.249607  0.844291  0.549092  1
  O  O15  1  0.246189  0.389334  0.432799  1
  O  O16  1  0.200712  0.161447  0.535162  1
  O  O17  1  0.392447  0.646749  0.460132  1
