# generated using pymatgen
data_LiSn2P3O10
_symmetry_space_group_name_H-M   'P 1'
_cell_length_a   4.94192081
_cell_length_b   8.71307267
_cell_length_c   30.37076200
_cell_angle_alpha   90.00000000
_cell_angle_beta   90.00000000
_cell_angle_gamma   90.00000000
_symmetry_Int_Tables_number   1
_chemical_formula_structural   LiSn2P3O10
_chemical_formula_sum   'Li2 Sn4 P6 O20'
_cell_volume   1307.74421221
_cell_formula_units_Z   2
loop_
 _symmetry_equiv_pos_site_id
 _symmetry_equiv_pos_as_xyz
  1  'x, y, z'
loop_
 _atom_site_type_symbol
 _atom_site_label
 _atom_site_symmetry_multiplicity
 _atom_site_fract_x
 _atom_site_fract_y
 _atom_site_fract_z
 _atom_site_occupancy
  Li  Li1  1  0.000000  -0.000000  0.500000  1
  Li  Li2  1  0.000000  0.500000  0.500000  1
  Sn  Sn3  1  0.910494  0.483902  0.387078  1
  Sn  Sn4  1  0.089506  0.516098  0.612922  1
  Sn  Sn5  1  0.089506  0.983902  0.612922  1
  Sn  Sn6  1  0.910494  0.016098  0.387078  1
  P  P7  1  0.628011  0.750000  0.459100  1
  P  P8  1  0.414168  0.750000  0.373620  1
  P  P9  1  0.585832  0.250000  0.626380  1
  P  P10  1  0.643464  0.750000  0.554722  1
  P  P11  1  0.371989  0.250000  0.540900  1
  P  P12  1  0.356536  0.250000  0.445278  1
  O  O13  1  0.716666  0.100350  0.640292  1
  O  O14  1  0.181963  0.103682  0.445970  1
  O  O15  1  0.716666  0.399650  0.640292  1
  O  O16  1  0.512667  0.250000  0.493995  1
  O  O17  1  0.487333  0.750000  0.506005  1
  O  O18  1  0.283334  0.600350  0.359708  1
  O  O19  1  0.283334  0.899650  0.359708  1
  O  O20  1  0.415967  0.750000  0.587610  1
  O  O21  1  0.209148  0.397068  0.546925  1
  O  O22  1  0.629395  0.250000  0.571474  1
  O  O23  1  0.181963  0.396318  0.445970  1
  O  O24  1  0.790852  0.897068  0.453075  1
  O  O25  1  0.723605  0.750000  0.368007  1
  O  O26  1  0.276395  0.250000  0.631993  1
  O  O27  1  0.818037  0.603682  0.554030  1
  O  O28  1  0.584033  0.250000  0.412390  1
  O  O29  1  0.790852  0.602932  0.453075  1
  O  O30  1  0.209148  0.102932  0.546925  1
  O  O31  1  0.370605  0.750000  0.428526  1
  O  O32  1  0.818037  0.896318  0.554030  1
