# generated using pymatgen
data_Mn2F7
_symmetry_space_group_name_H-M   'P 1'
_cell_length_a   5.13112956
_cell_length_b   9.86966750
_cell_length_c   23.31022974
_cell_angle_alpha   90.00000000
_cell_angle_beta   90.00000000
_cell_angle_gamma   101.41667763
_symmetry_Int_Tables_number   1
_chemical_formula_structural   Mn2F7
_chemical_formula_sum   'Mn4 F14'
_cell_volume   1157.13166983
_cell_formula_units_Z   2
loop_
 _symmetry_equiv_pos_site_id
 _symmetry_equiv_pos_as_xyz
  1  'x, y, z'
loop_
 _atom_site_type_symbol
 _atom_site_label
 _atom_site_symmetry_multiplicity
 _atom_site_fract_x
 _atom_site_fract_y
 _atom_site_fract_z
 _atom_site_occupancy
  Mn  Mn1  1  0.281562  0.576016  0.514699  1
  Mn  Mn2  1  0.718438  0.923984  0.514699  1
  Mn  Mn3  1  0.281562  0.076016  0.485301  1
  Mn  Mn4  1  0.718438  0.423984  0.485301  1
  F  F5  1  0.021266  0.396986  0.527759  1
  F  F6  1  0.500000  0.750000  0.492492  1
  F  F7  1  0.422403  0.988990  0.549535  1
  F  F8  1  0.978734  0.103014  0.527759  1
  F  F9  1  0.184379  0.147023  0.421784  1
  F  F10  1  0.184379  0.647023  0.578216  1
  F  F11  1  0.422403  0.488990  0.450465  1
  F  F12  1  0.577597  0.511010  0.549535  1
  F  F13  1  0.815621  0.352977  0.421784  1
  F  F14  1  0.815621  0.852977  0.578216  1
  F  F15  1  0.021266  0.896986  0.472241  1
  F  F16  1  0.577597  0.011010  0.450465  1
  F  F17  1  0.500000  0.250000  0.507508  1
  F  F18  1  0.978734  0.603014  0.472241  1
