# generated using pymatgen
data_AgO2F
_symmetry_space_group_name_H-M   'P 1'
_cell_length_a   4.02468671
_cell_length_b   7.08576093
_cell_length_c   21.96215800
_cell_angle_alpha   90.00000000
_cell_angle_beta   90.00000000
_cell_angle_gamma   90.00000000
_symmetry_Int_Tables_number   1
_chemical_formula_structural   AgO2F
_chemical_formula_sum   'Ag2 O4 F2'
_cell_volume   626.31611566
_cell_formula_units_Z   2
loop_
 _symmetry_equiv_pos_site_id
 _symmetry_equiv_pos_as_xyz
  1  'x, y, z'
loop_
 _atom_site_type_symbol
 _atom_site_label
 _atom_site_symmetry_multiplicity
 _atom_site_fract_x
 _atom_site_fract_y
 _atom_site_fract_z
 _atom_site_occupancy
  Ag  Ag1  1  0.500000  0.218172  0.500000  1
  Ag  Ag2  1  0.000000  0.781828  0.500000  1
  O  O3  1  0.203695  0.411995  0.454163  1
  O  O4  1  0.703695  0.588006  0.545837  1
  O  O5  1  0.296305  0.588006  0.454163  1
  O  O6  1  0.796305  0.411995  0.545837  1
  F  F7  1  0.750000  0.000000  0.546406  1
  F  F8  1  0.250000  0.000000  0.453594  1
