# generated using pymatgen
data_AgSbS2
_symmetry_space_group_name_H-M   'P 1'
_cell_length_a   5.61126999
_cell_length_b   17.77602782
_cell_length_c   22.58822900
_cell_angle_alpha   90.00000000
_cell_angle_beta   90.00000000
_cell_angle_gamma   90.00000000
_symmetry_Int_Tables_number   1
_chemical_formula_structural   AgSbS2
_chemical_formula_sum   'Ag4 Sb4 S8'
_cell_volume   2253.08755548
_cell_formula_units_Z   4
loop_
 _symmetry_equiv_pos_site_id
 _symmetry_equiv_pos_as_xyz
  1  'x, y, z'
loop_
 _atom_site_type_symbol
 _atom_site_label
 _atom_site_symmetry_multiplicity
 _atom_site_fract_x
 _atom_site_fract_y
 _atom_site_fract_z
 _atom_site_occupancy
  Ag  Ag1  1  0.742823  0.995762  0.501289  1
  Ag  Ag2  1  0.757550  0.494482  0.500245  1
  Ag  Ag3  1  0.242450  0.994482  0.500245  1
  Ag  Ag4  1  0.257177  0.495762  0.501289  1
  Sb  Sb5  1  0.200075  0.171767  0.471981  1
  Sb  Sb6  1  0.703783  0.315848  0.527199  1
  Sb  Sb7  1  0.799925  0.671767  0.471981  1
  Sb  Sb8  1  0.296217  0.815848  0.527199  1
  S  S9  1  0.637232  0.737378  0.559089  1
  S  S10  1  0.004413  0.588783  0.545677  1
  S  S11  1  0.496433  0.902032  0.455216  1
  S  S12  1  0.503567  0.402032  0.455216  1
  S  S13  1  0.137483  0.751129  0.439304  1
  S  S14  1  0.862517  0.251129  0.439304  1
  S  S15  1  0.362768  0.237378  0.559089  1
  S  S16  1  0.995587  0.088783  0.545677  1
