# generated using pymatgen
data_LiFe3(OF3)2
_symmetry_space_group_name_H-M   'P 1'
_cell_length_a   3.88854602
_cell_length_b   8.75578167
_cell_length_c   31.21609200
_cell_angle_alpha   90.00000000
_cell_angle_beta   90.00000000
_cell_angle_gamma   90.00000000
_symmetry_Int_Tables_number   1
_chemical_formula_structural   LiFe3(OF3)2
_chemical_formula_sum   'Li2 Fe6 O4 F12'
_cell_volume   1062.82239941
_cell_formula_units_Z   2
loop_
 _symmetry_equiv_pos_site_id
 _symmetry_equiv_pos_as_xyz
  1  'x, y, z'
loop_
 _atom_site_type_symbol
 _atom_site_label
 _atom_site_symmetry_multiplicity
 _atom_site_fract_x
 _atom_site_fract_y
 _atom_site_fract_z
 _atom_site_occupancy
  Li  Li1  1  0.500000  0.346045  0.660061  1
  Li  Li2  1  0.000000  0.846483  0.339969  1
  Fe  Fe3  1  0.500000  0.043310  0.571298  1
  Fe  Fe4  1  -0.000000  0.225345  0.514408  1
  Fe  Fe5  1  0.500000  0.424048  0.573494  1
  Fe  Fe6  1  0.000000  0.543365  0.428654  1
  Fe  Fe7  1  0.500000  0.725150  0.485593  1
  Fe  Fe8  1  0.000000  0.924137  0.426557  1
  O  O9  1  0.000000  0.081021  0.559704  1
  O  O10  1  0.500000  0.261829  0.530346  1
  O  O11  1  0.500000  0.581014  0.440247  1
  O  O12  1  0.000000  0.761754  0.469640  1
  F  F13  1  0.000000  0.015382  0.369859  1
  F  F14  1  0.000000  0.105650  0.461638  1
  F  F15  1  0.500000  0.229994  0.614510  1
  F  F16  1  0.000000  0.415785  0.481604  1
  F  F17  1  0.000000  0.416031  0.573000  1
  F  F18  1  0.000000  0.413238  0.383359  1
  F  F19  1  0.500000  0.515053  0.630253  1
  F  F20  1  0.500000  0.605492  0.538374  1
  F  F21  1  0.000000  0.730092  0.385450  1
  F  F22  1  0.500000  0.915615  0.518377  1
  F  F23  1  0.500000  0.916062  0.427012  1
  F  F24  1  0.500000  0.913206  0.616592  1
