# generated using pymatgen
data_ZrH3NF4
_symmetry_space_group_name_H-M   'P 1'
_cell_length_a   5.94193374
_cell_length_b   8.09238653
_cell_length_c   26.86062294
_cell_angle_alpha   90.09627467
_cell_angle_beta   91.10279987
_cell_angle_gamma   73.59845056
_symmetry_Int_Tables_number   1
_chemical_formula_structural   ZrH3NF4
_chemical_formula_sum   'Zr4 H12 N4 F16'
_cell_volume   1238.77958751
_cell_formula_units_Z   4
loop_
 _symmetry_equiv_pos_site_id
 _symmetry_equiv_pos_as_xyz
  1  'x, y, z'
loop_
 _atom_site_type_symbol
 _atom_site_label
 _atom_site_symmetry_multiplicity
 _atom_site_fract_x
 _atom_site_fract_y
 _atom_site_fract_z
 _atom_site_occupancy
  Zr  Zr1  1  0.670249  0.356401  0.452372  1
  Zr  Zr2  1  0.329751  0.643599  0.547628  1
  Zr  Zr3  1  0.710082  0.844579  0.461978  1
  Zr  Zr4  1  0.289918  0.155421  0.538022  1
  H  H5  1  0.146520  0.267519  0.412860  1
  H  H6  1  0.853480  0.732481  0.587140  1
  H  H7  1  0.967689  0.396262  0.371935  1
  H  H8  1  0.032311  0.603738  0.628065  1
  H  H9  1  0.128129  0.867561  0.408336  1
  H  H10  1  0.871871  0.132439  0.591664  1
  H  H11  1  0.964313  0.782303  0.370459  1
  H  H12  1  0.019100  0.810601  0.626437  1
  H  H13  1  0.145814  0.664238  0.413737  1
  H  H14  1  0.854186  0.335762  0.586263  1
  H  H15  1  0.980900  0.189399  0.373563  1
  H  H16  1  0.035687  0.217697  0.629541  1
  N  N17  1  0.028954  0.782170  0.406026  1
  N  N18  1  0.985180  0.292802  0.395095  1
  N  N19  1  0.014820  0.707198  0.604905  1
  N  N20  1  0.971046  0.217830  0.593974  1
  F  F21  1  0.344083  0.966019  0.475303  1
  F  F22  1  0.552506  0.821857  0.397392  1
  F  F23  1  0.492419  0.595140  0.613348  1
  F  F24  1  0.507581  0.404860  0.386652  1
  F  F25  1  0.368109  0.276518  0.470701  1
  F  F26  1  0.447494  0.178143  0.602608  1
  F  F27  1  0.391405  0.592610  0.467827  1
  F  F28  1  0.655917  0.033981  0.524697  1
  F  F29  1  0.825669  0.563427  0.452767  1
  F  F30  1  0.174331  0.436573  0.547233  1
  F  F31  1  0.025968  0.781373  0.505406  1
  F  F32  1  0.974032  0.218627  0.494594  1
  F  F33  1  0.736158  0.083565  0.432461  1
  F  F34  1  0.263842  0.916435  0.567539  1
  F  F35  1  0.608595  0.407390  0.532173  1
  F  F36  1  0.631891  0.723482  0.529299  1
