# generated using pymatgen
data_InH5(NF)2
_symmetry_space_group_name_H-M   'P 1'
_cell_length_a   5.41721003
_cell_length_b   12.07341507
_cell_length_c   24.70510200
_cell_angle_alpha   90.00000000
_cell_angle_beta   90.00000000
_cell_angle_gamma   90.00000000
_symmetry_Int_Tables_number   1
_chemical_formula_structural   InH5(NF)2
_chemical_formula_sum   'In4 H20 N8 F8'
_cell_volume   1615.81805513
_cell_formula_units_Z   4
loop_
 _symmetry_equiv_pos_site_id
 _symmetry_equiv_pos_as_xyz
  1  'x, y, z'
loop_
 _atom_site_type_symbol
 _atom_site_label
 _atom_site_symmetry_multiplicity
 _atom_site_fract_x
 _atom_site_fract_y
 _atom_site_fract_z
 _atom_site_occupancy
  In  In1  1  0.429379  0.858496  0.498129  1
  In  In2  1  0.070621  0.358496  0.498129  1
  In  In3  1  0.570621  0.141504  0.501871  1
  In  In4  1  0.929379  0.641504  0.501871  1
  H  H5  1  0.207487  0.734701  0.422444  1
  H  H6  1  0.292513  0.234701  0.422444  1
  H  H7  1  0.792513  0.265299  0.577556  1
  H  H8  1  0.707487  0.765299  0.577556  1
  H  H9  1  0.998105  0.822710  0.443845  1
  H  H10  1  0.501895  0.322710  0.443845  1
  H  H11  1  0.001895  0.177290  0.556155  1
  H  H12  1  0.498105  0.677290  0.556155  1
  H  H13  1  0.009019  0.934784  0.554568  1
  H  H14  1  0.490981  0.434784  0.554568  1
  H  H15  1  0.990981  0.065216  0.445432  1
  H  H16  1  0.509019  0.565216  0.445432  1
  H  H17  1  0.260078  0.984999  0.584169  1
  H  H18  1  0.239922  0.484999  0.584169  1
  H  H19  1  0.739922  0.015001  0.415831  1
  H  H20  1  0.760078  0.515001  0.415831  1
  H  H21  1  0.168975  0.852563  0.596679  1
  H  H22  1  0.331025  0.352563  0.596679  1
  H  H23  1  0.831025  0.147437  0.403321  1
  H  H24  1  0.668975  0.647437  0.403321  1
  N  N25  1  0.134108  0.768934  0.456803  1
  N  N26  1  0.365892  0.268934  0.456803  1
  N  N27  1  0.865892  0.231066  0.543197  1
  N  N28  1  0.634108  0.731066  0.543197  1
  N  N29  1  0.183283  0.913840  0.568199  1
  N  N30  1  0.316717  0.413840  0.568199  1
  N  N31  1  0.816717  0.086160  0.431801  1
  N  N32  1  0.683283  0.586160  0.431801  1
  F  F33  1  0.302952  0.021485  0.466694  1
  F  F34  1  0.197048  0.521485  0.466694  1
  F  F35  1  0.697048  0.978515  0.533306  1
  F  F36  1  0.802952  0.478515  0.533306  1
  F  F37  1  0.662316  0.856083  0.429312  1
  F  F38  1  0.837684  0.356083  0.429312  1
  F  F39  1  0.337684  0.143917  0.570688  1
  F  F40  1  0.162316  0.643917  0.570688  1
