# generated using pymatgen
data_MgN8
_symmetry_space_group_name_H-M   'P 1'
_cell_length_a   6.25747410
_cell_length_b   6.25747410
_cell_length_c   24.62689561
_cell_angle_alpha   90.00000000
_cell_angle_beta   90.00000000
_cell_angle_gamma   90.00000000
_symmetry_Int_Tables_number   1
_chemical_formula_structural   MgN8
_chemical_formula_sum   'Mg1 N8'
_cell_volume   964.29028398
_cell_formula_units_Z   1
loop_
 _symmetry_equiv_pos_site_id
 _symmetry_equiv_pos_as_xyz
  1  'x, y, z'
loop_
 _atom_site_type_symbol
 _atom_site_label
 _atom_site_symmetry_multiplicity
 _atom_site_fract_x
 _atom_site_fract_y
 _atom_site_fract_z
 _atom_site_occupancy
  Mg  Mg1  1  -0.000000  -0.000000  0.500000  1
  N  N2  1  0.500000  -0.000000  0.500000  1
  N  N3  1  0.000000  0.500000  0.500000  1
  N  N4  1  0.069429  0.674812  0.500000  1
  N  N5  1  0.930571  0.325188  0.500000  1
  N  N6  1  0.674812  0.930571  0.500000  1
  N  N7  1  0.325188  0.069429  0.500000  1
  N  N8  1  -0.000000  -0.000000  0.595617  1
  N  N9  1  0.000000  -0.000000  0.404383  1
