# generated using pymatgen
data_TlF
_symmetry_space_group_name_H-M   'P 1'
_cell_length_a   5.20625891
_cell_length_b   5.40134666
_cell_length_c   23.09398800
_cell_angle_alpha   90.00000000
_cell_angle_beta   90.00000000
_cell_angle_gamma   90.00000000
_symmetry_Int_Tables_number   1
_chemical_formula_structural   TlF
_chemical_formula_sum   'Tl4 F4'
_cell_volume   649.42162963
_cell_formula_units_Z   4
loop_
 _symmetry_equiv_pos_site_id
 _symmetry_equiv_pos_as_xyz
  1  'x, y, z'
loop_
 _atom_site_type_symbol
 _atom_site_label
 _atom_site_symmetry_multiplicity
 _atom_site_fract_x
 _atom_site_fract_y
 _atom_site_fract_z
 _atom_site_occupancy
  Tl  Tl1  1  0.250000  0.510529  0.431454  1
  Tl  Tl2  1  0.750000  0.489471  0.568546  1
  Tl  Tl3  1  0.250000  0.010529  0.568546  1
  Tl  Tl4  1  0.750000  0.989471  0.431454  1
  F  F5  1  0.250000  0.548320  0.538084  1
  F  F6  1  0.750000  0.451680  0.461916  1
  F  F7  1  0.250000  0.048320  0.461916  1
  F  F8  1  0.750000  0.951680  0.538084  1
