# generated using pymatgen
data_Mg5Ti
_symmetry_space_group_name_H-M   'P 1'
_cell_length_a   3.06206822
_cell_length_b   5.93956512
_cell_length_c   25.12005000
_cell_angle_alpha   90.00000000
_cell_angle_beta   90.00000000
_cell_angle_gamma   75.06229779
_symmetry_Int_Tables_number   1
_chemical_formula_structural   Mg5Ti
_chemical_formula_sum   'Mg5 Ti1'
_cell_volume   441.42816609
_cell_formula_units_Z   1
loop_
 _symmetry_equiv_pos_site_id
 _symmetry_equiv_pos_as_xyz
  1  'x, y, z'
loop_
 _atom_site_type_symbol
 _atom_site_label
 _atom_site_symmetry_multiplicity
 _atom_site_fract_x
 _atom_site_fract_y
 _atom_site_fract_z
 _atom_site_occupancy
  Mg  Mg1  1  0.996541  0.006917  0.413246  1
  Mg  Mg2  1  0.613007  0.773987  0.507447  1
  Mg  Mg3  1  0.956022  0.087956  0.585682  1
  Mg  Mg4  1  0.224257  0.551487  0.601658  1
  Mg  Mg5  1  0.732267  0.535466  0.399475  1
  Ti  Ti6  1  0.345942  0.308118  0.492492  1
