# generated using pymatgen
data_MgSn
_symmetry_space_group_name_H-M   'P 1'
_cell_length_a   3.29466670
_cell_length_b   3.29466721
_cell_length_c   27.54977800
_cell_angle_alpha   90.00000000
_cell_angle_beta   90.00000000
_cell_angle_gamma   120.00000450
_symmetry_Int_Tables_number   1
_chemical_formula_structural   MgSn
_chemical_formula_sum   'Mg2 Sn2'
_cell_volume   258.98329747
_cell_formula_units_Z   2
loop_
 _symmetry_equiv_pos_site_id
 _symmetry_equiv_pos_as_xyz
  1  'x, y, z'
loop_
 _atom_site_type_symbol
 _atom_site_label
 _atom_site_symmetry_multiplicity
 _atom_site_fract_x
 _atom_site_fract_y
 _atom_site_fract_z
 _atom_site_occupancy
  Mg  Mg1  1  0.666667  0.333333  0.545514  1
  Mg  Mg2  1  0.333333  0.666667  0.454486  1
  Sn  Sn3  1  0.333333  0.666667  0.636724  1
  Sn  Sn4  1  0.666667  0.333333  0.363276  1
