# generated using pymatgen
data_FePb2(CN)6
_symmetry_space_group_name_H-M   'P 1'
_cell_length_a   7.00114785
_cell_length_b   7.00114750
_cell_length_c   26.54777000
_cell_angle_alpha   90.00000000
_cell_angle_beta   90.00000000
_cell_angle_gamma   120.00000172
_symmetry_Int_Tables_number   1
_chemical_formula_structural   FePb2(CN)6
_chemical_formula_sum   'Fe1 Pb2 C6 N6'
_cell_volume   1126.93053654
_cell_formula_units_Z   1
loop_
 _symmetry_equiv_pos_site_id
 _symmetry_equiv_pos_as_xyz
  1  'x, y, z'
loop_
 _atom_site_type_symbol
 _atom_site_label
 _atom_site_symmetry_multiplicity
 _atom_site_fract_x
 _atom_site_fract_y
 _atom_site_fract_z
 _atom_site_occupancy
  Fe  Fe1  1  -0.000000  0.000000  0.500000  1
  Pb  Pb2  1  0.333333  0.666667  0.616952  1
  Pb  Pb3  1  0.666667  0.333333  0.383048  1
  C  C4  1  0.760829  0.949250  0.540995  1
  C  C5  1  0.188419  0.239171  0.540995  1
  C  C6  1  0.050750  0.811581  0.540995  1
  C  C7  1  0.949250  0.188419  0.459005  1
  C  C8  1  0.239171  0.050750  0.459005  1
  C  C9  1  0.811581  0.760829  0.459005  1
  N  N10  1  0.306105  0.387576  0.567276  1
  N  N11  1  0.612424  0.918529  0.567276  1
  N  N12  1  0.081471  0.693895  0.567276  1
  N  N13  1  0.693895  0.612424  0.432724  1
  N  N14  1  0.918529  0.306105  0.432724  1
  N  N15  1  0.387576  0.081471  0.432724  1
