# generated using pymatgen
data_TiNF
_symmetry_space_group_name_H-M   'P 1'
_cell_length_a   3.05992082
_cell_length_b   3.95556692
_cell_length_c   24.33487300
_cell_angle_alpha   90.00000000
_cell_angle_beta   90.00000000
_cell_angle_gamma   90.00000000
_symmetry_Int_Tables_number   1
_chemical_formula_structural   TiNF
_chemical_formula_sum   'Ti2 N2 F2'
_cell_volume   294.54252732
_cell_formula_units_Z   2
loop_
 _symmetry_equiv_pos_site_id
 _symmetry_equiv_pos_as_xyz
  1  'x, y, z'
loop_
 _atom_site_type_symbol
 _atom_site_label
 _atom_site_symmetry_multiplicity
 _atom_site_fract_x
 _atom_site_fract_y
 _atom_site_fract_z
 _atom_site_occupancy
  Ti  Ti1  1  -0.000000  0.500000  0.533838  1
  Ti  Ti2  1  0.500000  0.000000  0.466162  1
  N  N3  1  0.000000  -0.000000  0.519752  1
  N  N4  1  0.500000  0.500000  0.480248  1
  F  F5  1  0.500000  0.500000  0.588900  1
  F  F6  1  0.000000  -0.000000  0.411100  1
