# generated using pymatgen
data_CuBrO2
_symmetry_space_group_name_H-M   'P 1'
_cell_length_a   3.64144050
_cell_length_b   7.10228864
_cell_length_c   22.96127600
_cell_angle_alpha   90.00000000
_cell_angle_beta   90.00000000
_cell_angle_gamma   90.00000000
_symmetry_Int_Tables_number   1
_chemical_formula_structural   CuBrO2
_chemical_formula_sum   'Cu2 Br2 O4'
_cell_volume   593.83741259
_cell_formula_units_Z   2
loop_
 _symmetry_equiv_pos_site_id
 _symmetry_equiv_pos_as_xyz
  1  'x, y, z'
loop_
 _atom_site_type_symbol
 _atom_site_label
 _atom_site_symmetry_multiplicity
 _atom_site_fract_x
 _atom_site_fract_y
 _atom_site_fract_z
 _atom_site_occupancy
  Cu  Cu1  1  0.500000  0.735019  0.500000  1
  Cu  Cu2  1  0.000000  0.264981  0.500000  1
  Br  Br3  1  0.750000  0.500000  0.565748  1
  Br  Br4  1  0.250000  0.500000  0.434252  1
  O  O5  1  0.212211  0.909324  0.456423  1
  O  O6  1  0.287789  0.090676  0.456423  1
  O  O7  1  0.787789  0.909324  0.543577  1
  O  O8  1  0.712211  0.090676  0.543577  1
