# generated using pymatgen
data_YCoF5
_symmetry_space_group_name_H-M   'P 1'
_cell_length_a   4.41603049
_cell_length_b   8.21694512
_cell_length_c   24.38339000
_cell_angle_alpha   90.00000000
_cell_angle_beta   90.00000000
_cell_angle_gamma   90.00000000
_symmetry_Int_Tables_number   1
_chemical_formula_structural   YCoF5
_chemical_formula_sum   'Y1 Co1 F5'
_cell_volume   884.78252139
_cell_formula_units_Z   1
loop_
 _symmetry_equiv_pos_site_id
 _symmetry_equiv_pos_as_xyz
  1  'x, y, z'
loop_
 _atom_site_type_symbol
 _atom_site_label
 _atom_site_symmetry_multiplicity
 _atom_site_fract_x
 _atom_site_fract_y
 _atom_site_fract_z
 _atom_site_occupancy
  Y  Y1  1  -0.000000  0.500000  0.500000  1
  Co  Co2  1  0.000000  0.000000  0.500000  1
  F  F3  1  -0.000000  0.500000  0.585329  1
  F  F4  1  0.000000  0.500000  0.414671  1
  F  F5  1  0.000000  0.214868  0.500000  1
  F  F6  1  -0.000000  0.785132  0.500000  1
  F  F7  1  0.500000  0.500000  0.500000  1
