# generated using pymatgen
data_Ca(Bi2O3)2
_symmetry_space_group_name_H-M   'P 1'
_cell_length_a   6.66893740
_cell_length_b   10.31856130
_cell_length_c   26.71418741
_cell_angle_alpha   90.04934434
_cell_angle_beta   90.15269693
_cell_angle_gamma   71.14631882
_symmetry_Int_Tables_number   1
_chemical_formula_structural   Ca(Bi2O3)2
_chemical_formula_sum   'Ca3 Bi12 O18'
_cell_volume   1739.66883630
_cell_formula_units_Z   3
loop_
 _symmetry_equiv_pos_site_id
 _symmetry_equiv_pos_as_xyz
  1  'x, y, z'
loop_
 _atom_site_type_symbol
 _atom_site_label
 _atom_site_symmetry_multiplicity
 _atom_site_fract_x
 _atom_site_fract_y
 _atom_site_fract_z
 _atom_site_occupancy
  Ca  Ca1  1  0.211527  0.808022  0.509429  1
  Ca  Ca2  1  0.609841  -0.000000  0.519163  1
  Ca  Ca3  1  0.019549  0.191978  0.509429  1
  Bi  Bi4  1  0.244616  -0.000000  0.389608  1
  Bi  Bi5  1  0.553963  0.785445  0.629320  1
  Bi  Bi6  1  0.649219  0.202799  0.388854  1
  Bi  Bi7  1  0.938483  -0.000000  0.623589  1
  Bi  Bi8  1  0.079264  0.401826  0.387865  1
  Bi  Bi9  1  0.414689  0.381233  0.514563  1
  Bi  Bi10  1  0.339408  0.214555  0.629320  1
  Bi  Bi11  1  0.481090  0.598174  0.387865  1
  Bi  Bi12  1  0.795922  0.618767  0.514563  1
  Bi  Bi13  1  0.728126  0.372317  0.630726  1
  Bi  Bi14  1  0.852018  0.797201  0.388854  1
  Bi  Bi15  1  0.100444  0.627683  0.630726  1
  O  O16  1  0.609417  -0.000000  0.611611  1
  O  O17  1  0.283815  -0.000000  0.466745  1
  O  O18  1  0.542785  0.793235  0.547038  1
  O  O19  1  0.895098  -0.000000  0.394493  1
  O  O20  1  0.633136  0.209541  0.467957  1
  O  O21  1  0.962132  -0.000000  0.543324  1
  O  O22  1  0.317455  0.192623  0.375409  1
  O  O23  1  0.096682  0.382602  0.465690  1
  O  O24  1  0.336020  0.206765  0.547038  1
  O  O25  1  0.056536  0.423702  0.620372  1
  O  O26  1  0.757900  0.387544  0.387550  1
  O  O27  1  0.479283  0.617398  0.465690  1
  O  O28  1  0.737302  0.347688  0.550958  1
  O  O29  1  0.480238  0.576298  0.620372  1
  O  O30  1  0.145444  0.612456  0.387550  1
  O  O31  1  0.842677  0.790459  0.467957  1
  O  O32  1  0.084990  0.652312  0.550958  1
  O  O33  1  0.510079  0.807377  0.375409  1
