# generated using pymatgen
data_NbI2O
_symmetry_space_group_name_H-M   'P 1'
_cell_length_a   3.93797342
_cell_length_b   7.53734940
_cell_length_c   24.59934200
_cell_angle_alpha   90.00000000
_cell_angle_beta   90.00000000
_cell_angle_gamma   89.99995341
_symmetry_Int_Tables_number   1
_chemical_formula_structural   NbI2O
_chemical_formula_sum   'Nb2 I4 O2'
_cell_volume   730.15475716
_cell_formula_units_Z   2
loop_
 _symmetry_equiv_pos_site_id
 _symmetry_equiv_pos_as_xyz
  1  'x, y, z'
loop_
 _atom_site_type_symbol
 _atom_site_label
 _atom_site_symmetry_multiplicity
 _atom_site_fract_x
 _atom_site_fract_y
 _atom_site_fract_z
 _atom_site_occupancy
  Nb  Nb1  1  0.526152  0.472982  0.500066  1
  Nb  Nb2  1  0.526192  0.889260  0.499941  1
  I  I3  1  0.498395  0.680721  0.405952  1
  I  I4  1  0.493737  0.181267  0.422943  1
  I  I5  1  0.493695  0.181022  0.577051  1
  I  I6  1  0.498441  0.681570  0.594048  1
  O  O7  1  0.005724  0.468328  0.500176  1
  O  O8  1  0.005758  0.893864  0.499823  1
