# generated using pymatgen
data_HfTe5
_symmetry_space_group_name_H-M   'P 1'
_cell_length_a   4.02823807
_cell_length_b   13.86045440
_cell_length_c   25.29758400
_cell_angle_alpha   90.00000000
_cell_angle_beta   90.00000000
_cell_angle_gamma   90.00000000
_symmetry_Int_Tables_number   1
_chemical_formula_structural   HfTe5
_chemical_formula_sum   'Hf2 Te10'
_cell_volume   1412.44532203
_cell_formula_units_Z   2
loop_
 _symmetry_equiv_pos_site_id
 _symmetry_equiv_pos_as_xyz
  1  'x, y, z'
loop_
 _atom_site_type_symbol
 _atom_site_label
 _atom_site_symmetry_multiplicity
 _atom_site_fract_x
 _atom_site_fract_y
 _atom_site_fract_z
 _atom_site_occupancy
  Hf  Hf1  1  0.500000  -0.000000  0.538911  1
  Hf  Hf2  1  0.000000  0.500000  0.461089  1
  Te  Te3  1  -0.000000  0.683874  0.522739  1
  Te  Te4  1  0.500000  0.816126  0.477261  1
  Te  Te5  1  0.500000  0.500000  0.548713  1
  Te  Te6  1  0.000000  0.000000  0.451287  1
  Te  Te7  1  0.500000  0.600577  0.395302  1
  Te  Te8  1  0.000000  0.899423  0.604698  1
  Te  Te9  1  -0.000000  0.100577  0.604698  1
  Te  Te10  1  0.500000  0.399423  0.395302  1
  Te  Te11  1  -0.000000  0.316126  0.522739  1
  Te  Te12  1  0.500000  0.183874  0.477261  1
