# generated using pymatgen
data_Sr4Mn3(ClO4)2
_symmetry_space_group_name_H-M   'P 1'
_cell_length_a   3.88138675
_cell_length_b   3.88138675
_cell_length_c   34.10541600
_cell_angle_alpha   90.00000000
_cell_angle_beta   90.00000000
_cell_angle_gamma   90.00000000
_symmetry_Int_Tables_number   1
_chemical_formula_structural   Sr4Mn3(ClO4)2
_chemical_formula_sum   'Sr4 Mn3 Cl2 O8'
_cell_volume   513.80365474
_cell_formula_units_Z   1
loop_
 _symmetry_equiv_pos_site_id
 _symmetry_equiv_pos_as_xyz
  1  'x, y, z'
loop_
 _atom_site_type_symbol
 _atom_site_label
 _atom_site_symmetry_multiplicity
 _atom_site_fract_x
 _atom_site_fract_y
 _atom_site_fract_z
 _atom_site_occupancy
  Sr  Sr1  1  0.000000  -0.000000  0.328655  1
  Sr  Sr2  1  -0.000000  -0.000000  0.671345  1
  Sr  Sr3  1  -0.000000  -0.000000  0.444752  1
  Sr  Sr4  1  -0.000000  -0.000000  0.555248  1
  Mn  Mn5  1  0.500000  0.500000  0.500000  1
  Mn  Mn6  1  0.500000  0.500000  0.615099  1
  Mn  Mn7  1  0.500000  0.500000  0.384901  1
  Cl  Cl8  1  0.500000  0.500000  0.292549  1
  Cl  Cl9  1  0.500000  0.500000  0.707451  1
  O  O10  1  0.500000  -0.000000  0.376131  1
  O  O11  1  -0.000000  0.500000  0.623869  1
  O  O12  1  0.500000  -0.000000  0.500000  1
  O  O13  1  -0.000000  0.500000  0.500000  1
  O  O14  1  0.000000  0.500000  0.376131  1
  O  O15  1  0.500000  0.500000  0.442556  1
  O  O16  1  0.500000  0.000000  0.623869  1
  O  O17  1  0.500000  0.500000  0.557444  1
