# generated using pymatgen
data_Tl2PAuS4
_symmetry_space_group_name_H-M   'P 1'
_cell_length_a   6.35532107
_cell_length_b   6.75589729
_cell_length_c   29.13196200
_cell_angle_alpha   90.00000000
_cell_angle_beta   90.00000000
_cell_angle_gamma   90.00000000
_symmetry_Int_Tables_number   1
_chemical_formula_structural   Tl2PAuS4
_chemical_formula_sum   'Tl4 P2 Au2 S8'
_cell_volume   1250.80690218
_cell_formula_units_Z   2
loop_
 _symmetry_equiv_pos_site_id
 _symmetry_equiv_pos_as_xyz
  1  'x, y, z'
loop_
 _atom_site_type_symbol
 _atom_site_label
 _atom_site_symmetry_multiplicity
 _atom_site_fract_x
 _atom_site_fract_y
 _atom_site_fract_z
 _atom_site_occupancy
  Tl  Tl1  1  0.562322  0.750000  0.643771  1
  Tl  Tl2  1  0.209186  0.250000  0.356229  1
  Tl  Tl3  1  0.824059  0.250000  0.549935  1
  Tl  Tl4  1  0.947450  0.750000  0.450065  1
  P  P5  1  0.681790  0.250000  0.410947  1
  P  P6  1  0.089718  0.750000  0.589053  1
  Au  Au7  1  0.385754  0.500000  0.500000  1
  Au  Au8  1  0.385754  0.000000  0.500000  1
  S  S9  1  0.044464  0.750000  0.657139  1
  S  S10  1  0.727044  0.250000  0.342861  1
  S  S11  1  0.816743  0.750000  0.551464  1
  S  S12  1  0.954765  0.250000  0.448536  1
  S  S13  1  0.267276  0.007115  0.575836  1
  S  S14  1  0.504232  0.507115  0.424164  1
  S  S15  1  0.267276  0.492885  0.575836  1
  S  S16  1  0.504232  0.992885  0.424164  1
