# generated using pymatgen
data_PbWO4
_symmetry_space_group_name_H-M   'P 1'
_cell_length_a   5.54037782
_cell_length_b   7.96059632
_cell_length_c   25.53459300
_cell_angle_alpha   90.00000000
_cell_angle_beta   90.00000000
_cell_angle_gamma   90.00000000
_symmetry_Int_Tables_number   1
_chemical_formula_structural   PbWO4
_chemical_formula_sum   'Pb4 W4 O16'
_cell_volume   1126.19585205
_cell_formula_units_Z   4
loop_
 _symmetry_equiv_pos_site_id
 _symmetry_equiv_pos_as_xyz
  1  'x, y, z'
loop_
 _atom_site_type_symbol
 _atom_site_label
 _atom_site_symmetry_multiplicity
 _atom_site_fract_x
 _atom_site_fract_y
 _atom_site_fract_z
 _atom_site_occupancy
  Pb  Pb1  1  0.750000  0.250000  0.586082  1
  Pb  Pb2  1  0.250000  0.750000  0.413918  1
  Pb  Pb3  1  0.250000  0.250000  0.413918  1
  Pb  Pb4  1  0.750000  0.750000  0.586082  1
  W  W5  1  0.709073  0.500000  0.451379  1
  W  W6  1  0.790927  -0.000000  0.451379  1
  W  W7  1  0.209073  -0.000000  0.548621  1
  W  W8  1  0.290927  0.500000  0.548621  1
  O  O9  1  0.000000  0.143085  0.500000  1
  O  O10  1  0.520769  0.500000  0.392958  1
  O  O11  1  0.052953  0.500000  0.449823  1
  O  O12  1  0.750000  0.250000  0.429421  1
  O  O13  1  0.500000  0.643085  0.500000  1
  O  O14  1  0.020769  -0.000000  0.607042  1
  O  O15  1  0.447047  -0.000000  0.449823  1
  O  O16  1  0.500000  0.356915  0.500000  1
  O  O17  1  0.479231  0.500000  0.607042  1
  O  O18  1  0.947047  0.500000  0.550177  1
  O  O19  1  0.000000  0.856915  0.500000  1
  O  O20  1  0.250000  0.750000  0.570579  1
  O  O21  1  0.552953  -0.000000  0.550177  1
  O  O22  1  0.979231  -0.000000  0.392958  1
  O  O23  1  0.250000  0.250000  0.570579  1
  O  O24  1  0.750000  0.750000  0.429421  1
