# generated using pymatgen
data_YMg
_symmetry_space_group_name_H-M   'P 1'
_cell_length_a   3.46867408
_cell_length_b   3.46867398
_cell_length_c   28.58824900
_cell_angle_alpha   90.00000000
_cell_angle_beta   90.00000000
_cell_angle_gamma   120.00000091
_symmetry_Int_Tables_number   1
_chemical_formula_structural   YMg
_chemical_formula_sum   'Y2 Mg2'
_cell_volume   297.88261784
_cell_formula_units_Z   2
loop_
 _symmetry_equiv_pos_site_id
 _symmetry_equiv_pos_as_xyz
  1  'x, y, z'
loop_
 _atom_site_type_symbol
 _atom_site_label
 _atom_site_symmetry_multiplicity
 _atom_site_fract_x
 _atom_site_fract_y
 _atom_site_fract_z
 _atom_site_occupancy
  Y  Y1  1  0.666667  0.333333  0.551347  1
  Y  Y2  1  0.333333  0.666667  0.448653  1
  Mg  Mg3  1  0.333333  0.666667  0.645483  1
  Mg  Mg4  1  0.666667  0.333333  0.354517  1
