# generated using pymatgen
data_Sr2CrSO3
_symmetry_space_group_name_H-M   'P 1'
_cell_length_a   4.06764868
_cell_length_b   3.87308302
_cell_length_c   31.17968176
_cell_angle_alpha   90.00125345
_cell_angle_beta   89.99810671
_cell_angle_gamma   90.00182266
_symmetry_Int_Tables_number   1
_chemical_formula_structural   Sr2CrSO3
_chemical_formula_sum   'Sr4 Cr2 S2 O6'
_cell_volume   491.21533871
_cell_formula_units_Z   2
loop_
 _symmetry_equiv_pos_site_id
 _symmetry_equiv_pos_as_xyz
  1  'x, y, z'
loop_
 _atom_site_type_symbol
 _atom_site_label
 _atom_site_symmetry_multiplicity
 _atom_site_fract_x
 _atom_site_fract_y
 _atom_site_fract_z
 _atom_site_occupancy
  Sr  Sr1  1  0.250855  0.750120  0.343194  1
  Sr  Sr2  1  0.750539  0.249139  0.656865  1
  Sr  Sr3  1  0.249978  0.749217  0.456919  1
  Sr  Sr4  1  0.751191  0.253915  0.543254  1
  Cr  Cr5  1  0.749759  0.248105  0.402090  1
  Cr  Cr6  1  0.250252  0.759338  0.597976  1
  S  S7  1  0.750975  0.250762  0.320158  1
  S  S8  1  0.250559  0.745924  0.679300  1
  O  O9  1  0.748782  0.749959  0.400359  1
  O  O10  1  0.249266  0.249733  0.400749  1
  O  O11  1  0.251004  0.249920  0.599688  1
  O  O12  1  0.750288  0.753328  0.599256  1
  O  O13  1  0.749034  0.250960  0.463998  1
  O  O14  1  0.248197  0.742339  0.536194  1
