# generated using pymatgen
data_Ba2V3O8
_symmetry_space_group_name_H-M   'P 1'
_cell_length_a   3.88001401
_cell_length_b   3.88001400
_cell_length_c   28.35814300
_cell_angle_alpha   90.00000000
_cell_angle_beta   90.00000000
_cell_angle_gamma   90.70113392
_symmetry_Int_Tables_number   1
_chemical_formula_structural   Ba2V3O8
_chemical_formula_sum   'Ba2 V3 O8'
_cell_volume   426.88594492
_cell_formula_units_Z   1
loop_
 _symmetry_equiv_pos_site_id
 _symmetry_equiv_pos_as_xyz
  1  'x, y, z'
loop_
 _atom_site_type_symbol
 _atom_site_label
 _atom_site_symmetry_multiplicity
 _atom_site_fract_x
 _atom_site_fract_y
 _atom_site_fract_z
 _atom_site_occupancy
  Ba  Ba1  1  0.500000  0.500000  0.574964  1
  Ba  Ba2  1  0.500000  0.500000  0.425036  1
  V  V3  1  -0.000000  0.000000  0.642758  1
  V  V4  1  0.000000  -0.000000  0.500000  1
  V  V5  1  0.000000  0.000000  0.357242  1
  O  O6  1  0.500000  -0.000000  0.647106  1
  O  O7  1  0.000000  0.500000  0.647106  1
  O  O8  1  0.000000  0.500000  0.500000  1
  O  O9  1  0.000000  -0.000000  0.574759  1
  O  O10  1  0.500000  -0.000000  0.352894  1
  O  O11  1  -0.000000  0.500000  0.352894  1
  O  O12  1  0.000000  -0.000000  0.425241  1
  O  O13  1  0.500000  -0.000000  0.500000  1
