# generated using pymatgen
data_Fe(SbS2)2
_symmetry_space_group_name_H-M   'P 1'
_cell_length_a   3.49621395
_cell_length_b   11.06754301
_cell_length_c   28.96523400
_cell_angle_alpha   90.00000000
_cell_angle_beta   90.00000000
_cell_angle_gamma   90.00000000
_symmetry_Int_Tables_number   1
_chemical_formula_structural   Fe(SbS2)2
_chemical_formula_sum   'Fe2 Sb4 S8'
_cell_volume   1120.79519672
_cell_formula_units_Z   2
loop_
 _symmetry_equiv_pos_site_id
 _symmetry_equiv_pos_as_xyz
  1  'x, y, z'
loop_
 _atom_site_type_symbol
 _atom_site_label
 _atom_site_symmetry_multiplicity
 _atom_site_fract_x
 _atom_site_fract_y
 _atom_site_fract_z
 _atom_site_occupancy
  Fe  Fe1  1  0.500000  0.671604  0.531813  1
  Fe  Fe2  1  0.500000  0.171604  0.468187  1
  Sb  Sb3  1  0.000000  0.108419  0.351232  1
  Sb  Sb4  1  0.000000  0.608419  0.648768  1
  Sb  Sb5  1  -0.000000  0.963763  0.576993  1
  Sb  Sb6  1  -0.000000  0.463763  0.423007  1
  S  S7  1  0.500000  0.268732  0.352244  1
  S  S8  1  -0.000000  0.055184  0.433863  1
  S  S9  1  -0.000000  0.555184  0.566137  1
  S  S10  1  -0.000000  0.812363  0.514998  1
  S  S11  1  -0.000000  0.312363  0.485002  1
  S  S12  1  0.500000  0.605727  0.456427  1
  S  S13  1  0.500000  0.105727  0.543573  1
  S  S14  1  0.500000  0.768732  0.647756  1
