# generated using pymatgen
data_NaMnTe2
_symmetry_space_group_name_H-M   'P 1'
_cell_length_a   4.56411724
_cell_length_b   4.56411783
_cell_length_c   25.65547100
_cell_angle_alpha   90.00000000
_cell_angle_beta   90.00000000
_cell_angle_gamma   119.99999570
_symmetry_Int_Tables_number   1
_chemical_formula_structural   NaMnTe2
_chemical_formula_sum   'Na1 Mn1 Te2'
_cell_volume   462.83296370
_cell_formula_units_Z   1
loop_
 _symmetry_equiv_pos_site_id
 _symmetry_equiv_pos_as_xyz
  1  'x, y, z'
loop_
 _atom_site_type_symbol
 _atom_site_label
 _atom_site_symmetry_multiplicity
 _atom_site_fract_x
 _atom_site_fract_y
 _atom_site_fract_z
 _atom_site_occupancy
  Na  Na1  1  0.000000  -0.000000  0.591839  1
  Mn  Mn2  1  0.333333  0.666667  0.445518  1
  Te  Te3  1  0.333333  0.666667  0.545436  1
  Te  Te4  1  0.666667  0.333333  0.417208  1
