# generated using pymatgen
data_Li3Fe2F9
_symmetry_space_group_name_H-M   'P 1'
_cell_length_a   5.29949395
_cell_length_b   5.30005964
_cell_length_c   26.79702100
_cell_angle_alpha   90.00000000
_cell_angle_beta   90.00000000
_cell_angle_gamma   120.00973637
_symmetry_Int_Tables_number   1
_chemical_formula_structural   Li3Fe2F9
_chemical_formula_sum   'Li3 Fe2 F9'
_cell_volume   651.76297920
_cell_formula_units_Z   1
loop_
 _symmetry_equiv_pos_site_id
 _symmetry_equiv_pos_as_xyz
  1  'x, y, z'
loop_
 _atom_site_type_symbol
 _atom_site_label
 _atom_site_symmetry_multiplicity
 _atom_site_fract_x
 _atom_site_fract_y
 _atom_site_fract_z
 _atom_site_occupancy
  Li  Li1  1  0.666396  0.333452  0.612445  1
  Li  Li2  1  0.666560  0.333528  0.499957  1
  Li  Li3  1  0.666442  0.333446  0.387509  1
  Fe  Fe4  1  0.999797  0.000183  0.444565  1
  Fe  Fe5  1  0.999747  0.000163  0.555238  1
  F  F6  1  0.708279  0.030598  0.409840  1
  F  F7  1  0.708202  0.030866  0.590236  1
  F  F8  1  0.969089  0.678014  0.409813  1
  F  F9  1  0.968992  0.677874  0.590234  1
  F  F10  1  0.737010  0.716766  0.500026  1
  F  F11  1  0.322028  0.291667  0.590260  1
  F  F12  1  0.322023  0.291434  0.409817  1
  F  F13  1  0.979179  0.262925  0.500025  1
  F  F14  1  0.283193  0.020849  0.500031  1
