# generated using pymatgen
data_AuO2F
_symmetry_space_group_name_H-M   'P 1'
_cell_length_a   3.83615569
_cell_length_b   6.96619785
_cell_length_c   22.08215700
_cell_angle_alpha   90.00000000
_cell_angle_beta   90.00000000
_cell_angle_gamma   90.00000000
_symmetry_Int_Tables_number   1
_chemical_formula_structural   AuO2F
_chemical_formula_sum   'Au2 O4 F2'
_cell_volume   590.11074542
_cell_formula_units_Z   2
loop_
 _symmetry_equiv_pos_site_id
 _symmetry_equiv_pos_as_xyz
  1  'x, y, z'
loop_
 _atom_site_type_symbol
 _atom_site_label
 _atom_site_symmetry_multiplicity
 _atom_site_fract_x
 _atom_site_fract_y
 _atom_site_fract_z
 _atom_site_occupancy
  Au  Au1  1  0.000000  0.275417  0.500000  1
  Au  Au2  1  0.500000  0.724583  0.500000  1
  O  O3  1  0.707086  0.092613  0.550807  1
  O  O4  1  0.207086  0.907388  0.449193  1
  O  O5  1  0.292914  0.092613  0.449193  1
  O  O6  1  0.792914  0.907388  0.550807  1
  F  F7  1  0.750000  0.500000  0.548649  1
  F  F8  1  0.250000  0.500000  0.451351  1
