# generated using pymatgen
data_AgGeO3
_symmetry_space_group_name_H-M   'P 1'
_cell_length_a   2.91866593
_cell_length_b   7.68044608
_cell_length_c   25.55616200
_cell_angle_alpha   90.00000000
_cell_angle_beta   90.00000000
_cell_angle_gamma   90.00000000
_symmetry_Int_Tables_number   1
_chemical_formula_structural   AgGeO3
_chemical_formula_sum   'Ag2 Ge2 O6'
_cell_volume   572.88369992
_cell_formula_units_Z   2
loop_
 _symmetry_equiv_pos_site_id
 _symmetry_equiv_pos_as_xyz
  1  'x, y, z'
loop_
 _atom_site_type_symbol
 _atom_site_label
 _atom_site_symmetry_multiplicity
 _atom_site_fract_x
 _atom_site_fract_y
 _atom_site_fract_z
 _atom_site_occupancy
  Ag  Ag1  1  0.000000  0.750000  0.421595  1
  Ag  Ag2  1  0.000000  0.250000  0.578405  1
  Ge  Ge3  1  0.500000  0.000000  0.500000  1
  Ge  Ge4  1  0.500000  0.500000  0.500000  1
  O  O5  1  -0.000000  0.984218  0.550267  1
  O  O6  1  -0.000000  0.515782  0.550267  1
  O  O7  1  0.500000  0.750000  0.490433  1
  O  O8  1  0.500000  0.250000  0.509567  1
  O  O9  1  -0.000000  0.015782  0.449733  1
  O  O10  1  -0.000000  0.484218  0.449733  1
