# generated using pymatgen
data_Sr2Cu2O3
_symmetry_space_group_name_H-M   'P 1'
_cell_length_a   4.17796743
_cell_length_b   11.53270632
_cell_length_c   23.19344500
_cell_angle_alpha   90.00000000
_cell_angle_beta   90.00000000
_cell_angle_gamma   90.00380600
_symmetry_Int_Tables_number   1
_chemical_formula_structural   Sr2Cu2O3
_chemical_formula_sum   'Sr4 Cu4 O6'
_cell_volume   1117.53605164
_cell_formula_units_Z   2
loop_
 _symmetry_equiv_pos_site_id
 _symmetry_equiv_pos_as_xyz
  1  'x, y, z'
loop_
 _atom_site_type_symbol
 _atom_site_label
 _atom_site_symmetry_multiplicity
 _atom_site_fract_x
 _atom_site_fract_y
 _atom_site_fract_z
 _atom_site_occupancy
  Sr  Sr1  1  0.500167  0.497320  0.432740  1
  Sr  Sr2  1  0.997458  0.999640  0.432216  1
  Sr  Sr3  1  0.000431  0.998008  0.567219  1
  Sr  Sr4  1  0.498167  0.500193  0.567731  1
  Cu  Cu5  1  0.498622  0.169258  0.500085  1
  Cu  Cu6  1  0.497994  0.828159  0.499746  1
  Cu  Cu7  1  0.998681  0.328131  0.500407  1
  Cu  Cu8  1  0.998146  0.669287  0.499818  1
  O  O9  1  0.998551  0.158070  0.500191  1
  O  O10  1  0.997845  0.839484  0.499355  1
  O  O11  1  0.498595  0.339411  0.501138  1
  O  O12  1  0.498139  0.658072  0.499297  1
  O  O13  1  0.998588  0.498714  0.500589  1
  O  O14  1  0.498312  0.998763  0.499468  1
