# generated using pymatgen
data_Tl2S
_symmetry_space_group_name_H-M   'P 1'
_cell_length_a   12.21162116
_cell_length_b   12.21162090
_cell_length_c   23.38196800
_cell_angle_alpha   90.00000000
_cell_angle_beta   90.00000000
_cell_angle_gamma   60.00000202
_symmetry_Int_Tables_number   1
_chemical_formula_structural   Tl2S
_chemical_formula_sum   'Tl18 S9'
_cell_volume   3019.66203484
_cell_formula_units_Z   9
loop_
 _symmetry_equiv_pos_site_id
 _symmetry_equiv_pos_as_xyz
  1  'x, y, z'
loop_
 _atom_site_type_symbol
 _atom_site_label
 _atom_site_symmetry_multiplicity
 _atom_site_fract_x
 _atom_site_fract_y
 _atom_site_fract_z
 _atom_site_occupancy
  Tl  Tl1  1  0.239087  0.546657  0.574770  1
  Tl  Tl2  1  0.883014  0.906694  0.573127  1
  Tl  Tl3  1  0.105472  0.765834  0.425062  1
  Tl  Tl4  1  0.548239  0.571671  0.574601  1
  Tl  Tl5  1  0.906694  0.210290  0.573127  1
  Tl  Tl6  1  0.214255  0.239087  0.574770  1
  Tl  Tl7  1  0.460212  0.437121  0.426147  1
  Tl  Tl8  1  0.794508  0.769972  0.426267  1
  Tl  Tl9  1  0.769972  0.435522  0.426267  1
  Tl  Tl10  1  0.102668  0.460212  0.426147  1
  Tl  Tl11  1  0.571671  0.880090  0.574601  1
  Tl  Tl12  1  0.546657  0.214255  0.574770  1
  Tl  Tl13  1  0.880090  0.548239  0.574601  1
  Tl  Tl14  1  0.765834  0.128694  0.425062  1
  Tl  Tl15  1  0.210290  0.883014  0.573127  1
  Tl  Tl16  1  0.435522  0.794508  0.426267  1
  Tl  Tl17  1  0.128694  0.105472  0.425062  1
  Tl  Tl18  1  0.437121  0.102668  0.426147  1
  S  S19  1  0.333333  0.333333  0.493670  1
  S  S20  1  0.666667  0.666667  0.493379  1
  S  S21  1  0.332931  0.000534  0.513153  1
  S  S22  1  0.333593  0.666661  0.494546  1
  S  S23  1  0.666535  0.332931  0.513153  1
  S  S24  1  0.999745  0.333593  0.494546  1
  S  S25  1  0.000534  0.666535  0.513153  1
  S  S26  1  0.666661  0.999745  0.494546  1
  S  S27  1  -0.000000  0.000000  0.489934  1
