# generated using pymatgen
data_V3CrO10
_symmetry_space_group_name_H-M   'P 1'
_cell_length_a   6.53418680
_cell_length_b   6.53418680
_cell_length_c   22.12102300
_cell_angle_alpha   90.00000000
_cell_angle_beta   90.00000000
_cell_angle_gamma   90.00000000
_symmetry_Int_Tables_number   1
_chemical_formula_structural   V3CrO10
_chemical_formula_sum   'V3 Cr1 O10'
_cell_volume   944.47028627
_cell_formula_units_Z   1
loop_
 _symmetry_equiv_pos_site_id
 _symmetry_equiv_pos_as_xyz
  1  'x, y, z'
loop_
 _atom_site_type_symbol
 _atom_site_label
 _atom_site_symmetry_multiplicity
 _atom_site_fract_x
 _atom_site_fract_y
 _atom_site_fract_z
 _atom_site_occupancy
  V  V1  1  0.500000  0.000000  0.475413  1
  V  V2  1  0.000000  0.500000  0.524587  1
  V  V3  1  0.500000  0.500000  0.500000  1
  Cr  Cr4  1  -0.000000  0.000000  0.500000  1
  O  O5  1  -0.000000  0.214099  0.544912  1
  O  O6  1  0.500000  0.000000  0.548087  1
  O  O7  1  0.214099  0.000000  0.455088  1
  O  O8  1  0.785901  0.000000  0.455088  1
  O  O9  1  -0.000000  0.785901  0.544912  1
  O  O10  1  0.500000  0.717945  0.454471  1
  O  O11  1  0.717945  0.500000  0.545529  1
  O  O12  1  0.282055  0.500000  0.545529  1
  O  O13  1  -0.000000  0.500000  0.451913  1
  O  O14  1  0.500000  0.282055  0.454471  1
