# generated using pymatgen
data_CrBr3
_symmetry_space_group_name_H-M   'P 1'
_cell_length_a   6.34603160
_cell_length_b   6.34603241
_cell_length_c   22.87155900
_cell_angle_alpha   90.00000000
_cell_angle_beta   90.00000000
_cell_angle_gamma   120.00000084
_symmetry_Int_Tables_number   1
_chemical_formula_structural   CrBr3
_chemical_formula_sum   'Cr2 Br6'
_cell_volume   797.68405828
_cell_formula_units_Z   2
loop_
 _symmetry_equiv_pos_site_id
 _symmetry_equiv_pos_as_xyz
  1  'x, y, z'
loop_
 _atom_site_type_symbol
 _atom_site_label
 _atom_site_symmetry_multiplicity
 _atom_site_fract_x
 _atom_site_fract_y
 _atom_site_fract_z
 _atom_site_occupancy
  Cr  Cr1  1  0.000000  0.000000  0.500004  1
  Cr  Cr2  1  0.333333  0.666667  0.500012  1
  Br  Br3  1  0.019977  0.333323  0.563129  1
  Br  Br4  1  0.313345  0.980023  0.563129  1
  Br  Br5  1  0.666677  0.686655  0.563129  1
  Br  Br6  1  0.020170  0.686826  0.436865  1
  Br  Br7  1  0.666656  0.979830  0.436865  1
  Br  Br8  1  0.313174  0.333344  0.436865  1
