# generated using pymatgen
data_CuBi(PSe3)2
_symmetry_space_group_name_H-M   'P 1'
_cell_length_a   6.62963022
_cell_length_b   6.62962979
_cell_length_c   23.63078055
_cell_angle_alpha   90.00000000
_cell_angle_beta   90.00000000
_cell_angle_gamma   60.00000281
_symmetry_Int_Tables_number   1
_chemical_formula_structural   CuBi(PSe3)2
_chemical_formula_sum   'Cu1 Bi1 P2 Se6'
_cell_volume   899.47126488
_cell_formula_units_Z   1
loop_
 _symmetry_equiv_pos_site_id
 _symmetry_equiv_pos_as_xyz
  1  'x, y, z'
loop_
 _atom_site_type_symbol
 _atom_site_label
 _atom_site_symmetry_multiplicity
 _atom_site_fract_x
 _atom_site_fract_y
 _atom_site_fract_z
 _atom_site_occupancy
  Cu  Cu1  1  0.000000  -0.000000  0.549795  1
  Bi  Bi2  1  0.666667  0.666667  0.484798  1
  P  P3  1  0.333333  0.333333  0.444349  1
  P  P4  1  0.333333  0.333333  0.541641  1
  Se  Se5  1  0.039329  0.675584  0.419930  1
  Se  Se6  1  0.675584  0.285086  0.419930  1
  Se  Se7  1  0.646422  0.007763  0.573208  1
  Se  Se8  1  0.345815  0.646422  0.573208  1
  Se  Se9  1  0.007763  0.345815  0.573208  1
  Se  Se10  1  0.285086  0.039329  0.419930  1
