# generated using pymatgen
data_MgTi(GeO3)2
_symmetry_space_group_name_H-M   'P 1'
_cell_length_a   5.34774153
_cell_length_b   8.41812185
_cell_length_c   29.91877400
_cell_angle_alpha   90.00000000
_cell_angle_beta   90.00000000
_cell_angle_gamma   90.00000000
_symmetry_Int_Tables_number   1
_chemical_formula_structural   MgTi(GeO3)2
_chemical_formula_sum   'Mg4 Ti4 Ge8 O24'
_cell_volume   1346.88156748
_cell_formula_units_Z   4
loop_
 _symmetry_equiv_pos_site_id
 _symmetry_equiv_pos_as_xyz
  1  'x, y, z'
loop_
 _atom_site_type_symbol
 _atom_site_label
 _atom_site_symmetry_multiplicity
 _atom_site_fract_x
 _atom_site_fract_y
 _atom_site_fract_z
 _atom_site_occupancy
  Mg  Mg1  1  0.089467  0.452507  0.406358  1
  Mg  Mg2  1  0.410533  0.952507  0.593642  1
  Mg  Mg3  1  0.910533  0.547493  0.593642  1
  Mg  Mg4  1  0.589467  0.047493  0.406358  1
  Ti  Ti5  1  0.580577  0.656964  0.413992  1
  Ti  Ti6  1  0.919423  0.156964  0.586008  1
  Ti  Ti7  1  0.419423  0.343036  0.586008  1
  Ti  Ti8  1  0.080577  0.843036  0.413992  1
  Ge  Ge9  1  0.575653  0.357060  0.335110  1
  Ge  Ge10  1  0.924347  0.857060  0.664890  1
  Ge  Ge11  1  0.424347  0.642940  0.664890  1
  Ge  Ge12  1  0.075653  0.142940  0.335110  1
  Ge  Ge13  1  0.727919  0.350740  0.488701  1
  Ge  Ge14  1  0.772081  0.850740  0.511299  1
  Ge  Ge15  1  0.272081  0.649260  0.511299  1
  Ge  Ge16  1  0.227919  0.149260  0.488701  1
  O  O17  1  0.022254  0.292414  0.462367  1
  O  O18  1  0.477746  0.792414  0.537633  1
  O  O19  1  0.977746  0.707586  0.537633  1
  O  O20  1  0.522254  0.207586  0.462367  1
  O  O21  1  0.891177  0.316484  0.364549  1
  O  O22  1  0.608823  0.816484  0.635451  1
  O  O23  1  0.108823  0.683516  0.635451  1
  O  O24  1  0.391177  0.183516  0.364549  1
  O  O25  1  0.193248  0.957492  0.467691  1
  O  O26  1  0.306752  0.457492  0.532309  1
  O  O27  1  0.806752  0.042508  0.532309  1
  O  O28  1  0.693248  0.542508  0.467691  1
  O  O29  1  0.938790  0.005278  0.382984  1
  O  O30  1  0.561210  0.505278  0.617016  1
  O  O31  1  0.061210  0.994722  0.617016  1
  O  O32  1  0.438790  0.494722  0.382984  1
  O  O33  1  0.100307  0.338216  0.610733  1
  O  O34  1  0.399693  0.838216  0.389267  1
  O  O35  1  0.899693  0.661784  0.389267  1
  O  O36  1  0.600307  0.161784  0.610733  1
  O  O37  1  0.768399  0.353319  0.547121  1
  O  O38  1  0.731601  0.853319  0.452879  1
  O  O39  1  0.231601  0.646681  0.452879  1
  O  O40  1  0.268399  0.146681  0.547121  1
