# generated using pymatgen
data_MnSbS2Br
_symmetry_space_group_name_H-M   'P 1'
_cell_length_a   3.72932612
_cell_length_b   10.07504399
_cell_length_c   24.04634100
_cell_angle_alpha   89.94064942
_cell_angle_beta   90.00000000
_cell_angle_gamma   90.00000000
_symmetry_Int_Tables_number   1
_chemical_formula_structural   MnSbS2Br
_chemical_formula_sum   'Mn2 Sb2 S4 Br2'
_cell_volume   903.49568443
_cell_formula_units_Z   2
loop_
 _symmetry_equiv_pos_site_id
 _symmetry_equiv_pos_as_xyz
  1  'x, y, z'
loop_
 _atom_site_type_symbol
 _atom_site_label
 _atom_site_symmetry_multiplicity
 _atom_site_fract_x
 _atom_site_fract_y
 _atom_site_fract_z
 _atom_site_occupancy
  Mn  Mn1  1  0.000000  0.000000  0.500000  1
  Mn  Mn2  1  0.000000  0.500000  0.500000  1
  Sb  Sb3  1  0.500000  0.802326  0.599145  1
  Sb  Sb4  1  0.500000  0.197674  0.400855  1
  S  S5  1  0.500000  0.031991  0.572621  1
  S  S6  1  0.000000  0.747592  0.530250  1
  S  S7  1  0.500000  0.968009  0.427379  1
  S  S8  1  0.000000  0.252408  0.469750  1
  Br  Br9  1  0.500000  0.557462  0.426209  1
  Br  Br10  1  0.500000  0.442538  0.573791  1
