# generated using pymatgen
data_MoCl3
_symmetry_space_group_name_H-M   'P 1'
_cell_length_a   5.86313010
_cell_length_b   5.86313012
_cell_length_c   23.30651600
_cell_angle_alpha   90.00000000
_cell_angle_beta   90.00000000
_cell_angle_gamma   116.47813999
_symmetry_Int_Tables_number   1
_chemical_formula_structural   MoCl3
_chemical_formula_sum   'Mo2 Cl6'
_cell_volume   717.15028941
_cell_formula_units_Z   2
loop_
 _symmetry_equiv_pos_site_id
 _symmetry_equiv_pos_as_xyz
  1  'x, y, z'
loop_
 _atom_site_type_symbol
 _atom_site_label
 _atom_site_symmetry_multiplicity
 _atom_site_fract_x
 _atom_site_fract_y
 _atom_site_fract_z
 _atom_site_occupancy
  Mo  Mo1  1  0.146373  0.853627  0.500000  1
  Mo  Mo2  1  0.853627  0.146373  0.500000  1
  Cl  Cl3  1  0.154893  0.154893  0.571069  1
  Cl  Cl4  1  0.845107  0.845107  0.428931  1
  Cl  Cl5  1  0.163861  0.501168  0.442710  1
  Cl  Cl6  1  0.498832  0.836139  0.557290  1
  Cl  Cl7  1  0.836139  0.498832  0.557290  1
  Cl  Cl8  1  0.501168  0.163861  0.442710  1
