# generated using pymatgen
data_AuSe
_symmetry_space_group_name_H-M   'P 1'
_cell_length_a   3.75861213
_cell_length_b   6.50231632
_cell_length_c   25.20847200
_cell_angle_alpha   90.00000000
_cell_angle_beta   90.00000000
_cell_angle_gamma   73.20064533
_symmetry_Int_Tables_number   1
_chemical_formula_structural   AuSe
_chemical_formula_sum   'Au4 Se4'
_cell_volume   589.79421284
_cell_formula_units_Z   4
loop_
 _symmetry_equiv_pos_site_id
 _symmetry_equiv_pos_as_xyz
  1  'x, y, z'
loop_
 _atom_site_type_symbol
 _atom_site_label
 _atom_site_symmetry_multiplicity
 _atom_site_fract_x
 _atom_site_fract_y
 _atom_site_fract_z
 _atom_site_occupancy
  Au  Au1  1  0.991410  0.017181  0.597332  1
  Au  Au2  1  0.008590  0.982819  0.402668  1
  Au  Au3  1  0.353114  0.293772  0.494319  1
  Au  Au4  1  0.646886  0.706228  0.505681  1
  Se  Se5  1  0.355855  0.288289  0.591968  1
  Se  Se6  1  0.626957  0.746086  0.603282  1
  Se  Se7  1  0.373043  0.253914  0.396718  1
  Se  Se8  1  0.644145  0.711711  0.408032  1
