# generated using pymatgen
data_Np(OF)2
_symmetry_space_group_name_H-M   'P 1'
_cell_length_a   4.19875435
_cell_length_b   4.19875435
_cell_length_c   23.54432500
_cell_angle_alpha   90.00000000
_cell_angle_beta   90.00000000
_cell_angle_gamma   60.00000782
_symmetry_Int_Tables_number   1
_chemical_formula_structural   Np(OF)2
_chemical_formula_sum   'Np1 O2 F2'
_cell_volume   359.46602048
_cell_formula_units_Z   1
loop_
 _symmetry_equiv_pos_site_id
 _symmetry_equiv_pos_as_xyz
  1  'x, y, z'
loop_
 _atom_site_type_symbol
 _atom_site_label
 _atom_site_symmetry_multiplicity
 _atom_site_fract_x
 _atom_site_fract_y
 _atom_site_fract_z
 _atom_site_occupancy
  Np  Np1  1  -0.000000  0.000000  0.500000  1
  O  O2  1  -0.000000  0.000000  0.575491  1
  O  O3  1  -0.000000  0.000000  0.424509  1
  F  F4  1  0.333333  0.333333  0.499820  1
  F  F5  1  0.666667  0.666667  0.500180  1
