# generated using pymatgen
data_VOF2
_symmetry_space_group_name_H-M   'P 1'
_cell_length_a   3.06456190
_cell_length_b   3.70995539
_cell_length_c   22.45865083
_cell_angle_alpha   90.00426436
_cell_angle_beta   90.00215965
_cell_angle_gamma   90.00690131
_symmetry_Int_Tables_number   1
_chemical_formula_structural   VOF2
_chemical_formula_sum   'V1 O1 F2'
_cell_volume   255.34111161
_cell_formula_units_Z   1
loop_
 _symmetry_equiv_pos_site_id
 _symmetry_equiv_pos_as_xyz
  1  'x, y, z'
loop_
 _atom_site_type_symbol
 _atom_site_label
 _atom_site_symmetry_multiplicity
 _atom_site_fract_x
 _atom_site_fract_y
 _atom_site_fract_z
 _atom_site_occupancy
  V  V1  1  0.486810  0.467501  0.500003  1
  O  O2  1  0.486593  0.013063  0.499975  1
  F  F3  1  0.986746  0.518045  0.555660  1
  F  F4  1  0.986712  0.518068  0.444361  1
