# generated using pymatgen
data_PPdS
_symmetry_space_group_name_H-M   'P 1'
_cell_length_a   5.61651201
_cell_length_b   5.71071084
_cell_length_c   21.12858040
_cell_angle_alpha   90.10405489
_cell_angle_beta   90.00000000
_cell_angle_gamma   90.00000000
_symmetry_Int_Tables_number   1
_chemical_formula_structural   PPdS
_chemical_formula_sum   'P2 Pd2 S2'
_cell_volume   677.68280227
_cell_formula_units_Z   2
loop_
 _symmetry_equiv_pos_site_id
 _symmetry_equiv_pos_as_xyz
  1  'x, y, z'
loop_
 _atom_site_type_symbol
 _atom_site_label
 _atom_site_symmetry_multiplicity
 _atom_site_fract_x
 _atom_site_fract_y
 _atom_site_fract_z
 _atom_site_occupancy
  P  P1  1  0.364967  0.723024  0.475841  1
  P  P2  1  0.635033  0.223024  0.475841  1
  Pd  Pd3  1  0.248864  0.340276  0.496519  1
  Pd  Pd4  1  0.751136  0.840276  0.496519  1
  S  S5  1  0.848313  0.450251  0.527640  1
  S  S6  1  0.151687  0.950251  0.527640  1
