# generated using pymatgen
data_Ti(BiO3)2
_symmetry_space_group_name_H-M   'P 1'
_cell_length_a   5.46899523
_cell_length_b   5.46899523
_cell_length_c   24.46328800
_cell_angle_alpha   90.00000000
_cell_angle_beta   90.00000000
_cell_angle_gamma   90.00000000
_symmetry_Int_Tables_number   1
_chemical_formula_structural   Ti(BiO3)2
_chemical_formula_sum   'Ti1 Bi2 O6'
_cell_volume   731.69471366
_cell_formula_units_Z   1
loop_
 _symmetry_equiv_pos_site_id
 _symmetry_equiv_pos_as_xyz
  1  'x, y, z'
loop_
 _atom_site_type_symbol
 _atom_site_label
 _atom_site_symmetry_multiplicity
 _atom_site_fract_x
 _atom_site_fract_y
 _atom_site_fract_z
 _atom_site_occupancy
  Ti  Ti1  1  0.500000  0.500000  0.533579  1
  Bi  Bi2  1  0.500000  -0.000000  0.459575  1
  Bi  Bi3  1  0.000000  0.500000  0.459575  1
  O  O4  1  0.500000  0.500000  0.424135  1
  O  O5  1  0.500000  0.500000  0.603274  1
  O  O6  1  0.742701  0.257299  0.504965  1
  O  O7  1  0.257299  0.742701  0.504965  1
  O  O8  1  0.257299  0.257299  0.504965  1
  O  O9  1  0.742701  0.742701  0.504965  1
