# generated using pymatgen
data_BaTl(NiO3)2
_symmetry_space_group_name_H-M   'P 1'
_cell_length_a   3.65903710
_cell_length_b   3.64177333
_cell_length_c   39.79734300
_cell_angle_alpha   90.00000000
_cell_angle_beta   90.00000000
_cell_angle_gamma   89.75647745
_symmetry_Int_Tables_number   1
_chemical_formula_structural   BaTl(NiO3)2
_chemical_formula_sum   'Ba2 Tl2 Ni4 O12'
_cell_volume   530.31007730
_cell_formula_units_Z   2
loop_
 _symmetry_equiv_pos_site_id
 _symmetry_equiv_pos_as_xyz
  1  'x, y, z'
loop_
 _atom_site_type_symbol
 _atom_site_label
 _atom_site_symmetry_multiplicity
 _atom_site_fract_x
 _atom_site_fract_y
 _atom_site_fract_z
 _atom_site_occupancy
  Ba  Ba1  1  0.992086  0.995085  0.390759  1
  Ba  Ba2  1  0.497430  0.486893  0.609802  1
  Tl  Tl3  1  0.496149  0.494091  0.469139  1
  Tl  Tl4  1  0.996517  0.993641  0.531015  1
  Ni  Ni5  1  0.501020  0.505694  0.251963  1
  Ni  Ni6  1  0.996738  0.984788  0.669021  1
  Ni  Ni7  1  0.491262  0.493114  0.329237  1
  Ni  Ni8  1  0.994045  0.989222  0.747904  1
  O  O9  1  0.996776  0.485215  0.659561  1
  O  O10  1  0.500745  0.005649  0.251997  1
  O  O11  1  0.992123  0.989514  0.477429  1
  O  O12  1  0.493639  0.987977  0.747392  1
  O  O13  1  0.493235  0.487838  0.522565  1
  O  O14  1  0.990906  0.493094  0.340505  1
  O  O15  1  0.491669  0.992121  0.340967  1
  O  O16  1  0.997716  0.987540  0.582227  1
  O  O17  1  0.496647  0.985913  0.659953  1
  O  O18  1  0.000977  0.505348  0.252679  1
  O  O19  1  0.993446  0.488396  0.748110  1
  O  O20  1  0.492544  0.495530  0.417776  1
