# generated using pymatgen
data_VPO5
_symmetry_space_group_name_H-M   'P 1'
_cell_length_a   6.22870604
_cell_length_b   6.22870604
_cell_length_c   22.19119600
_cell_angle_alpha   90.00000000
_cell_angle_beta   90.00000000
_cell_angle_gamma   90.00000000
_symmetry_Int_Tables_number   1
_chemical_formula_structural   VPO5
_chemical_formula_sum   'V2 P2 O10'
_cell_volume   860.94692546
_cell_formula_units_Z   2
loop_
 _symmetry_equiv_pos_site_id
 _symmetry_equiv_pos_as_xyz
  1  'x, y, z'
loop_
 _atom_site_type_symbol
 _atom_site_label
 _atom_site_symmetry_multiplicity
 _atom_site_fract_x
 _atom_site_fract_y
 _atom_site_fract_z
 _atom_site_occupancy
  V  V1  1  0.500000  -0.000000  0.522539  1
  V  V2  1  0.000000  0.500000  0.477461  1
  P  P3  1  0.000000  -0.000000  0.500000  1
  P  P4  1  0.500000  0.500000  0.500000  1
  O  O5  1  0.299807  0.499210  0.458678  1
  O  O6  1  0.999210  0.200193  0.458678  1
  O  O7  1  0.000000  0.500000  0.549379  1
  O  O8  1  0.500000  -0.000000  0.450621  1
  O  O9  1  0.000790  0.799807  0.458678  1
  O  O10  1  0.700193  0.500790  0.458678  1
  O  O11  1  0.799807  0.999210  0.541322  1
  O  O12  1  0.499210  0.700193  0.541322  1
  O  O13  1  0.500790  0.299807  0.541322  1
  O  O14  1  0.200193  0.000790  0.541322  1
