# generated using pymatgen
data_HfIN
_symmetry_space_group_name_H-M   'P 1'
_cell_length_a   3.70220928
_cell_length_b   3.70220932
_cell_length_c   27.00293130
_cell_angle_alpha   90.00000000
_cell_angle_beta   90.00000000
_cell_angle_gamma   60.00000034
_symmetry_Int_Tables_number   1
_chemical_formula_structural   HfIN
_chemical_formula_sum   'Hf2 I2 N2'
_cell_volume   320.52615901
_cell_formula_units_Z   2
loop_
 _symmetry_equiv_pos_site_id
 _symmetry_equiv_pos_as_xyz
  1  'x, y, z'
loop_
 _atom_site_type_symbol
 _atom_site_label
 _atom_site_symmetry_multiplicity
 _atom_site_fract_x
 _atom_site_fract_y
 _atom_site_fract_z
 _atom_site_occupancy
  Hf  Hf1  1  0.333333  0.333333  0.547112  1
  Hf  Hf2  1  0.666667  0.666667  0.452888  1
  I  I3  1  -0.000000  -0.000000  0.628693  1
  I  I4  1  -0.000000  -0.000000  0.371307  1
  N  N5  1  0.666667  0.666667  0.532302  1
  N  N6  1  0.333333  0.333333  0.467698  1
