# generated using pymatgen
data_ZnCu(GeO3)2
_symmetry_space_group_name_H-M   'P 1'
_cell_length_a   5.25784674
_cell_length_b   9.64664245
_cell_length_c   28.57011300
_cell_angle_alpha   90.00000000
_cell_angle_beta   102.03318104
_cell_angle_gamma   90.00000000
_symmetry_Int_Tables_number   1
_chemical_formula_structural   ZnCu(GeO3)2
_chemical_formula_sum   'Zn4 Cu4 Ge8 O24'
_cell_volume   1417.25148628
_cell_formula_units_Z   4
loop_
 _symmetry_equiv_pos_site_id
 _symmetry_equiv_pos_as_xyz
  1  'x, y, z'
loop_
 _atom_site_type_symbol
 _atom_site_label
 _atom_site_symmetry_multiplicity
 _atom_site_fract_x
 _atom_site_fract_y
 _atom_site_fract_z
 _atom_site_occupancy
  Zn  Zn1  1  0.932183  0.488874  0.585264  1
  Zn  Zn2  1  0.567817  0.988874  0.414736  1
  Zn  Zn3  1  0.067817  0.511126  0.414736  1
  Zn  Zn4  1  0.432183  0.011126  0.585264  1
  Cu  Cu5  1  0.430197  0.647200  0.576374  1
  Cu  Cu6  1  0.069803  0.147200  0.423626  1
  Cu  Cu7  1  0.569803  0.352800  0.423626  1
  Cu  Cu8  1  0.930197  0.852800  0.576374  1
  Ge  Ge9  1  0.368979  0.347432  0.525689  1
  Ge  Ge10  1  0.131021  0.847432  0.474311  1
  Ge  Ge11  1  0.631021  0.652568  0.474311  1
  Ge  Ge12  1  0.868979  0.152568  0.525689  1
  Ge  Ge13  1  0.877183  0.330935  0.333046  1
  Ge  Ge14  1  0.622817  0.830935  0.666954  1
  Ge  Ge15  1  0.122817  0.669065  0.666954  1
  Ge  Ge16  1  0.377183  0.169065  0.333046  1
  O  O17  1  0.041754  0.198336  0.306289  1
  O  O18  1  0.458246  0.698336  0.693711  1
  O  O19  1  0.958246  0.801664  0.693711  1
  O  O20  1  0.541754  0.301664  0.306289  1
  O  O21  1  0.718414  0.312143  0.543580  1
  O  O22  1  0.781586  0.812143  0.456420  1
  O  O23  1  0.281586  0.687857  0.456420  1
  O  O24  1  0.218414  0.187857  0.543580  1
  O  O25  1  0.530102  0.007910  0.346523  1
  O  O26  1  0.969898  0.507910  0.653477  1
  O  O27  1  0.469898  0.992090  0.653477  1
  O  O28  1  0.030102  0.492090  0.346523  1
  O  O29  1  0.752980  0.025475  0.559406  1
  O  O30  1  0.747020  0.525475  0.440594  1
  O  O31  1  0.247020  0.974525  0.440594  1
  O  O32  1  0.252980  0.474525  0.559406  1
  O  O33  1  0.311429  0.389017  0.464591  1
  O  O34  1  0.188571  0.889017  0.535409  1
  O  O35  1  0.688571  0.610983  0.535409  1
  O  O36  1  0.811429  0.110983  0.464591  1
  O  O37  1  0.851138  0.290051  0.395685  1
  O  O38  1  0.648862  0.790051  0.604315  1
  O  O39  1  0.148862  0.709949  0.604315  1
  O  O40  1  0.351138  0.209949  0.395685  1
