# generated using pymatgen
data_FeTeBr7
_symmetry_space_group_name_H-M   'P 1'
_cell_length_a   6.75632239
_cell_length_b   8.75323845
_cell_length_c   28.75493303
_cell_angle_alpha   90.81675248
_cell_angle_beta   90.13735198
_cell_angle_gamma   83.03398886
_symmetry_Int_Tables_number   1
_chemical_formula_structural   FeTeBr7
_chemical_formula_sum   'Fe2 Te2 Br14'
_cell_volume   1687.83319783
_cell_formula_units_Z   2
loop_
 _symmetry_equiv_pos_site_id
 _symmetry_equiv_pos_as_xyz
  1  'x, y, z'
loop_
 _atom_site_type_symbol
 _atom_site_label
 _atom_site_symmetry_multiplicity
 _atom_site_fract_x
 _atom_site_fract_y
 _atom_site_fract_z
 _atom_site_occupancy
  Fe  Fe1  1  0.541061  0.129713  0.428769  1
  Fe  Fe2  1  0.951435  0.593466  0.583557  1
  Te  Te3  1  0.985445  0.508566  0.416402  1
  Te  Te4  1  0.378703  0.975811  0.577858  1
  Br  Br5  1  0.869155  0.179309  0.409699  1
  Br  Br6  1  0.362181  0.349500  0.464383  1
  Br  Br7  1  0.588075  0.926681  0.483524  1
  Br  Br8  1  0.390887  0.042619  0.363624  1
  Br  Br9  1  0.123709  0.761953  0.432222  1
  Br  Br10  1  0.149918  0.459192  0.337297  1
  Br  Br11  1  0.649477  0.623785  0.384846  1
  Br  Br12  1  0.280650  0.641083  0.565276  1
  Br  Br13  1  0.772720  0.815252  0.618353  1
  Br  Br14  1  0.792254  0.518807  0.514338  1
  Br  Br15  1  0.962249  0.395901  0.635545  1
  Br  Br16  1  0.527988  0.227135  0.587527  1
  Br  Br17  1  0.240182  0.978768  0.660035  1
  Br  Br18  1  0.058011  0.080827  0.536743  1
