# generated using pymatgen
data_LiCoPO4
_symmetry_space_group_name_H-M   'P 1'
_cell_length_a   4.73369172
_cell_length_b   6.18002693
_cell_length_c   24.43406400
_cell_angle_alpha   90.00000000
_cell_angle_beta   90.00000000
_cell_angle_gamma   90.00000000
_symmetry_Int_Tables_number   1
_chemical_formula_structural   LiCoPO4
_chemical_formula_sum   'Li2 Co2 P2 O8'
_cell_volume   714.80247223
_cell_formula_units_Z   2
loop_
 _symmetry_equiv_pos_site_id
 _symmetry_equiv_pos_as_xyz
  1  'x, y, z'
loop_
 _atom_site_type_symbol
 _atom_site_label
 _atom_site_symmetry_multiplicity
 _atom_site_fract_x
 _atom_site_fract_y
 _atom_site_fract_z
 _atom_site_occupancy
  Li  Li1  1  0.547622  0.250000  0.424115  1
  Li  Li2  1  0.452378  0.750000  0.575885  1
  Co  Co3  1  -0.000000  0.000000  0.500000  1
  Co  Co4  1  -0.000000  0.500000  0.500000  1
  P  P5  1  0.579752  0.750000  0.458437  1
  P  P6  1  0.420248  0.250000  0.541563  1
  O  O7  1  0.269886  0.250000  0.482163  1
  O  O8  1  0.254283  0.750000  0.467314  1
  O  O9  1  0.687924  0.960299  0.432145  1
  O  O10  1  0.687924  0.539701  0.432145  1
  O  O11  1  0.312076  0.460299  0.567855  1
  O  O12  1  0.312076  0.039701  0.567855  1
  O  O13  1  0.745717  0.250000  0.532686  1
  O  O14  1  0.730114  0.750000  0.517837  1
