# generated using pymatgen
data_HoH2ClO2
_symmetry_space_group_name_H-M   'P 1'
_cell_length_a   3.54879021
_cell_length_b   6.20300845
_cell_length_c   25.45929300
_cell_angle_alpha   90.00000000
_cell_angle_beta   90.00000000
_cell_angle_gamma   90.00000000
_symmetry_Int_Tables_number   1
_chemical_formula_structural   HoH2ClO2
_chemical_formula_sum   'Ho2 H4 Cl2 O4'
_cell_volume   560.43988899
_cell_formula_units_Z   2
loop_
 _symmetry_equiv_pos_site_id
 _symmetry_equiv_pos_as_xyz
  1  'x, y, z'
loop_
 _atom_site_type_symbol
 _atom_site_label
 _atom_site_symmetry_multiplicity
 _atom_site_fract_x
 _atom_site_fract_y
 _atom_site_fract_z
 _atom_site_occupancy
  Ho  Ho1  1  0.750000  0.628729  0.470891  1
  Ho  Ho2  1  0.250000  0.120638  0.529109  1
  H  H3  1  0.750000  0.066150  0.442377  1
  H  H4  1  0.250000  0.313027  0.421439  1
  H  H5  1  0.750000  0.436340  0.578561  1
  H  H6  1  0.250000  0.683217  0.557623  1
  Cl  Cl7  1  0.250000  0.768709  0.395055  1
  Cl  Cl8  1  0.750000  0.980658  0.604945  1
  O  O9  1  0.750000  0.008810  0.478010  1
  O  O10  1  0.250000  0.366744  0.457508  1
  O  O11  1  0.750000  0.382624  0.542492  1
  O  O12  1  0.250000  0.740557  0.521990  1
