# generated using pymatgen
data_Re2S2O13
_symmetry_space_group_name_H-M   'P 1'
_cell_length_a   8.37929748
_cell_length_b   9.70048333
_cell_length_c   24.50375800
_cell_angle_alpha   90.00000000
_cell_angle_beta   90.00000000
_cell_angle_gamma   90.00000000
_symmetry_Int_Tables_number   1
_chemical_formula_structural   Re2S2O13
_chemical_formula_sum   'Re4 S4 O26'
_cell_volume   1991.74473268
_cell_formula_units_Z   2
loop_
 _symmetry_equiv_pos_site_id
 _symmetry_equiv_pos_as_xyz
  1  'x, y, z'
loop_
 _atom_site_type_symbol
 _atom_site_label
 _atom_site_symmetry_multiplicity
 _atom_site_fract_x
 _atom_site_fract_y
 _atom_site_fract_z
 _atom_site_occupancy
  Re  Re1  1  0.312961  0.399660  0.464694  1
  Re  Re2  1  0.687039  0.600340  0.464694  1
  Re  Re3  1  0.812961  0.100340  0.464694  1
  Re  Re4  1  0.187039  0.899660  0.464694  1
  S  S5  1  0.127601  0.182933  0.545625  1
  S  S6  1  0.872399  0.817068  0.545625  1
  S  S7  1  0.627601  0.317068  0.545625  1
  S  S8  1  0.372399  0.682933  0.545625  1
  O  O9  1  0.148997  0.320252  0.511033  1
  O  O10  1  0.851003  0.679749  0.511033  1
  O  O11  1  0.648997  0.179748  0.511033  1
  O  O12  1  0.351003  0.820252  0.511033  1
  O  O13  1  0.227582  0.079422  0.516160  1
  O  O14  1  0.772418  0.920578  0.516160  1
  O  O15  1  0.727582  0.420578  0.516160  1
  O  O16  1  0.272418  0.579422  0.516160  1
  O  O17  1  0.956223  0.150952  0.537053  1
  O  O18  1  0.043777  0.849048  0.537053  1
  O  O19  1  0.456223  0.349048  0.537053  1
  O  O20  1  0.543777  0.650952  0.537053  1
  O  O21  1  0.170089  0.206173  0.600504  1
  O  O22  1  0.829911  0.793827  0.600504  1
  O  O23  1  0.670089  0.293827  0.600504  1
  O  O24  1  0.329911  0.706173  0.600504  1
  O  O25  1  0.500000  0.500000  0.445708  1
  O  O26  1  -0.000000  -0.000000  0.445708  1
  O  O27  1  0.375284  0.248323  0.435358  1
  O  O28  1  0.624716  0.751677  0.435358  1
  O  O29  1  0.875284  0.251677  0.435358  1
  O  O30  1  0.124716  0.748323  0.435358  1
  O  O31  1  0.186059  0.466817  0.416718  1
  O  O32  1  0.813941  0.533183  0.416718  1
  O  O33  1  0.686059  0.033183  0.416718  1
  O  O34  1  0.313941  0.966817  0.416718  1
