# generated using pymatgen
data_Bi2O3
_symmetry_space_group_name_H-M   'P 1'
_cell_length_a   7.99661506
_cell_length_b   7.99661544
_cell_length_c   23.14713600
_cell_angle_alpha   90.00000000
_cell_angle_beta   90.00000000
_cell_angle_gamma   60.00000155
_symmetry_Int_Tables_number   1
_chemical_formula_structural   Bi2O3
_chemical_formula_sum   'Bi4 O6'
_cell_volume   1281.85913669
_cell_formula_units_Z   2
loop_
 _symmetry_equiv_pos_site_id
 _symmetry_equiv_pos_as_xyz
  1  'x, y, z'
loop_
 _atom_site_type_symbol
 _atom_site_label
 _atom_site_symmetry_multiplicity
 _atom_site_fract_x
 _atom_site_fract_y
 _atom_site_fract_z
 _atom_site_occupancy
  Bi  Bi1  1  0.170792  0.170792  0.461051  1
  Bi  Bi2  1  0.658416  0.170792  0.461051  1
  Bi  Bi3  1  0.170792  0.658416  0.461051  1
  Bi  Bi4  1  0.000000  0.000000  0.591327  1
  O  O5  1  0.468961  0.468961  0.459823  1
  O  O6  1  0.062077  0.468961  0.459823  1
  O  O7  1  0.468961  0.062077  0.459823  1
  O  O8  1  0.133930  0.133930  0.548684  1
  O  O9  1  0.732141  0.133930  0.548684  1
  O  O10  1  0.133930  0.732141  0.548684  1
