# generated using pymatgen
data_Tl3(MoO4)2
_symmetry_space_group_name_H-M   'P 1'
_cell_length_a   6.10134110
_cell_length_b   6.10134069
_cell_length_c   27.57878800
_cell_angle_alpha   90.00000000
_cell_angle_beta   90.00000000
_cell_angle_gamma   119.99999682
_symmetry_Int_Tables_number   1
_chemical_formula_structural   Tl3(MoO4)2
_chemical_formula_sum   'Tl3 Mo2 O8'
_cell_volume   889.11185907
_cell_formula_units_Z   1
loop_
 _symmetry_equiv_pos_site_id
 _symmetry_equiv_pos_as_xyz
  1  'x, y, z'
loop_
 _atom_site_type_symbol
 _atom_site_label
 _atom_site_symmetry_multiplicity
 _atom_site_fract_x
 _atom_site_fract_y
 _atom_site_fract_z
 _atom_site_occupancy
  Tl  Tl1  1  0.333333  0.666667  0.506583  1
  Tl  Tl2  1  0.000000  -0.000000  0.527359  1
  Tl  Tl3  1  0.000000  -0.000000  0.385315  1
  Mo  Mo4  1  0.666667  0.333333  0.582938  1
  Mo  Mo5  1  0.666667  0.333333  0.434848  1
  O  O6  1  0.992282  0.497501  0.560348  1
  O  O7  1  0.338350  0.168881  0.455145  1
  O  O8  1  0.502499  0.494781  0.560348  1
  O  O9  1  0.830532  0.661650  0.455145  1
  O  O10  1  0.831119  0.169468  0.455145  1
  O  O11  1  0.666667  0.333333  0.371107  1
  O  O12  1  0.505219  0.007718  0.560348  1
  O  O13  1  0.666667  0.333333  0.645372  1
