# generated using pymatgen
data_Fe(HO)2
_symmetry_space_group_name_H-M   'P 1'
_cell_length_a   3.27669604
_cell_length_b   3.27669639
_cell_length_c   24.01726700
_cell_angle_alpha   90.00000000
_cell_angle_beta   90.00000000
_cell_angle_gamma   119.99999651
_symmetry_Int_Tables_number   1
_chemical_formula_structural   Fe(HO)2
_chemical_formula_sum   'Fe1 H2 O2'
_cell_volume   223.31947153
_cell_formula_units_Z   1
loop_
 _symmetry_equiv_pos_site_id
 _symmetry_equiv_pos_as_xyz
  1  'x, y, z'
loop_
 _atom_site_type_symbol
 _atom_site_label
 _atom_site_symmetry_multiplicity
 _atom_site_fract_x
 _atom_site_fract_y
 _atom_site_fract_z
 _atom_site_occupancy
  Fe  Fe1  1  -0.000000  -0.000000  0.500000  1
  H  H2  1  0.333333  0.666667  0.583353  1
  H  H3  1  0.666667  0.333333  0.416647  1
  O  O4  1  0.333333  0.666667  0.542926  1
  O  O5  1  0.666667  0.333333  0.457074  1
