# generated using pymatgen
data_HfFeCl6
_symmetry_space_group_name_H-M   'P 1'
_cell_length_a   6.23078645
_cell_length_b   6.23078792
_cell_length_c   22.67843300
_cell_angle_alpha   90.00000000
_cell_angle_beta   90.00000000
_cell_angle_gamma   120.00000286
_symmetry_Int_Tables_number   1
_chemical_formula_structural   HfFeCl6
_chemical_formula_sum   'Hf1 Fe1 Cl6'
_cell_volume   762.48182905
_cell_formula_units_Z   1
loop_
 _symmetry_equiv_pos_site_id
 _symmetry_equiv_pos_as_xyz
  1  'x, y, z'
loop_
 _atom_site_type_symbol
 _atom_site_label
 _atom_site_symmetry_multiplicity
 _atom_site_fract_x
 _atom_site_fract_y
 _atom_site_fract_z
 _atom_site_occupancy
  Hf  Hf1  1  0.333333  0.666667  0.500000  1
  Fe  Fe2  1  -0.000000  -0.000000  0.500000  1
  Cl  Cl3  1  0.315793  0.981153  0.562252  1
  Cl  Cl4  1  0.665358  0.684207  0.562252  1
  Cl  Cl5  1  0.018847  0.334642  0.562252  1
  Cl  Cl6  1  0.315793  0.334642  0.437748  1
  Cl  Cl7  1  0.018847  0.684207  0.437748  1
  Cl  Cl8  1  0.665358  0.981153  0.437748  1
