# generated using pymatgen
data_CuPO3
_symmetry_space_group_name_H-M   'P 1'
_cell_length_a   4.74015688
_cell_length_b   12.14054259
_cell_length_c   27.97727800
_cell_angle_alpha   90.00000000
_cell_angle_beta   90.00000000
_cell_angle_gamma   90.00000000
_symmetry_Int_Tables_number   1
_chemical_formula_structural   CuPO3
_chemical_formula_sum   'Cu8 P8 O24'
_cell_volume   1610.03853418
_cell_formula_units_Z   8
loop_
 _symmetry_equiv_pos_site_id
 _symmetry_equiv_pos_as_xyz
  1  'x, y, z'
loop_
 _atom_site_type_symbol
 _atom_site_label
 _atom_site_symmetry_multiplicity
 _atom_site_fract_x
 _atom_site_fract_y
 _atom_site_fract_z
 _atom_site_occupancy
  Cu  Cu1  1  0.163680  0.183586  0.514560  1
  Cu  Cu2  1  0.518155  0.837410  0.385891  1
  Cu  Cu3  1  0.663680  0.316414  0.485440  1
  Cu  Cu4  1  0.018155  0.662590  0.614109  1
  Cu  Cu5  1  0.981845  0.337410  0.385891  1
  Cu  Cu6  1  0.336320  0.683586  0.514560  1
  Cu  Cu7  1  0.481845  0.162590  0.614109  1
  Cu  Cu8  1  0.836320  0.816414  0.485440  1
  P  P9  1  0.823138  0.333832  0.596546  1
  P  P10  1  0.818856  0.040999  0.430731  1
  P  P11  1  0.323138  0.166168  0.403454  1
  P  P12  1  0.318856  0.459001  0.569269  1
  P  P13  1  0.681144  0.540999  0.430731  1
  P  P14  1  0.676862  0.833832  0.596546  1
  P  P15  1  0.181144  0.959001  0.569269  1
  P  P16  1  0.176862  0.666168  0.403454  1
  O  O17  1  0.832246  0.277819  0.548456  1
  O  O18  1  0.805468  0.089335  0.479231  1
  O  O19  1  0.759142  0.918208  0.425012  1
  O  O20  1  0.305468  0.410665  0.520769  1
  O  O21  1  0.120143  0.058801  0.405326  1
  O  O22  1  0.617955  0.106302  0.392538  1
  O  O23  1  0.747338  0.263173  0.639127  1
  O  O24  1  0.332246  0.222181  0.451544  1
  O  O25  1  0.247338  0.236827  0.360873  1
  O  O26  1  0.117955  0.393698  0.607462  1
  O  O27  1  0.620143  0.441199  0.594674  1
  O  O28  1  0.740858  0.418208  0.425012  1
  O  O29  1  0.259142  0.581792  0.574988  1
  O  O30  1  0.379857  0.558801  0.405326  1
  O  O31  1  0.882045  0.606302  0.392538  1
  O  O32  1  0.752662  0.763173  0.639127  1
  O  O33  1  0.667754  0.777819  0.548456  1
  O  O34  1  0.252662  0.736827  0.360873  1
  O  O35  1  0.382045  0.893698  0.607462  1
  O  O36  1  0.879857  0.941199  0.594674  1
  O  O37  1  0.694532  0.589335  0.479231  1
  O  O38  1  0.240858  0.081792  0.574988  1
  O  O39  1  0.194532  0.910665  0.520769  1
  O  O40  1  0.167754  0.722181  0.451544  1
