# generated using pymatgen
data_BaTl(SnO3)2
_symmetry_space_group_name_H-M   'P 1'
_cell_length_a   3.91897184
_cell_length_b   3.93314087
_cell_length_c   30.57528046
_cell_angle_alpha   90.07212411
_cell_angle_beta   90.00389782
_cell_angle_gamma   89.99665185
_symmetry_Int_Tables_number   1
_chemical_formula_structural   BaTl(SnO3)2
_chemical_formula_sum   'Ba1 Tl1 Sn2 O6'
_cell_volume   471.28297053
_cell_formula_units_Z   1
loop_
 _symmetry_equiv_pos_site_id
 _symmetry_equiv_pos_as_xyz
  1  'x, y, z'
loop_
 _atom_site_type_symbol
 _atom_site_label
 _atom_site_symmetry_multiplicity
 _atom_site_fract_x
 _atom_site_fract_y
 _atom_site_fract_z
 _atom_site_occupancy
  Ba  Ba1  1  0.499591  0.498462  0.452100  1
  Tl  Tl2  1  0.996723  0.000128  0.353750  1
  Sn  Sn3  1  0.995958  0.001704  0.631561  1
  Sn  Sn4  1  0.000210  0.998955  0.536388  1
  O  O5  1  0.991822  0.502202  0.644820  1
  O  O6  1  0.991190  0.002681  0.292136  1
  O  O7  1  0.500061  0.998853  0.511125  1
  O  O8  1  0.000072  0.498877  0.511529  1
  O  O9  1  0.495718  0.006527  0.646074  1
  O  O10  1  0.999772  0.997544  0.420516  1
