# generated using pymatgen
data_LiSb(PO3)4
_symmetry_space_group_name_H-M   'P 1'
_cell_length_a   7.32742444
_cell_length_b   9.90091155
_cell_length_c   28.62984969
_cell_angle_alpha   90.00000000
_cell_angle_beta   90.00000000
_cell_angle_gamma   108.43891343
_symmetry_Int_Tables_number   1
_chemical_formula_structural   LiSb(PO3)4
_chemical_formula_sum   'Li2 Sb2 P8 O24'
_cell_volume   1970.41104876
_cell_formula_units_Z   2
loop_
 _symmetry_equiv_pos_site_id
 _symmetry_equiv_pos_as_xyz
  1  'x, y, z'
loop_
 _atom_site_type_symbol
 _atom_site_label
 _atom_site_symmetry_multiplicity
 _atom_site_fract_x
 _atom_site_fract_y
 _atom_site_fract_z
 _atom_site_occupancy
  Li  Li1  1  0.500000  0.250000  0.495999  1
  Li  Li2  1  0.500000  0.750000  0.504001  1
  Sb  Sb3  1  -0.000000  0.250000  0.365320  1
  Sb  Sb4  1  -0.000000  0.750000  0.634680  1
  P  P5  1  0.240597  0.425040  0.524266  1
  P  P6  1  0.978672  0.044402  0.430561  1
  P  P7  1  0.021328  0.455598  0.430561  1
  P  P8  1  0.240597  0.925040  0.475734  1
  P  P9  1  0.759404  0.074960  0.524266  1
  P  P10  1  0.978672  0.544402  0.569439  1
  P  P11  1  0.021328  0.955598  0.569439  1
  P  P12  1  0.759404  0.574960  0.475734  1
  O  O13  1  0.390406  0.063734  0.468869  1
  O  O14  1  0.156327  0.973968  0.611540  1
  O  O15  1  0.270759  0.284668  0.525643  1
  O  O16  1  0.390406  0.563734  0.531131  1
  O  O17  1  0.145430  0.185356  0.416909  1
  O  O18  1  0.156327  0.473968  0.388460  1
  O  O19  1  0.883745  0.066963  0.476526  1
  O  O20  1  0.065011  0.420620  0.562561  1
  O  O21  1  0.270759  0.784668  0.474357  1
  O  O22  1  0.934989  0.079380  0.562561  1
  O  O23  1  0.116255  0.433037  0.476526  1
  O  O24  1  0.145430  0.685356  0.583091  1
  O  O25  1  0.854570  0.314644  0.416909  1
  O  O26  1  0.883745  0.566963  0.523474  1
  O  O27  1  0.065011  0.920620  0.437439  1
  O  O28  1  0.729241  0.215332  0.525643  1
  O  O29  1  0.934989  0.579380  0.437439  1
  O  O30  1  0.116255  0.933037  0.523474  1
  O  O31  1  0.843674  0.526032  0.611540  1
  O  O32  1  0.854571  0.814644  0.583091  1
  O  O33  1  0.609594  0.436266  0.468869  1
  O  O34  1  0.729241  0.715332  0.474357  1
  O  O35  1  0.843673  0.026032  0.388460  1
  O  O36  1  0.609594  0.936266  0.531131  1
