# generated using pymatgen
data_VCl2O
_symmetry_space_group_name_H-M   'P 1'
_cell_length_a   3.70121924
_cell_length_b   6.94094400
_cell_length_c   23.30164900
_cell_angle_alpha   90.00000000
_cell_angle_beta   90.00000000
_cell_angle_gamma   89.99966924
_symmetry_Int_Tables_number   1
_chemical_formula_structural   VCl2O
_chemical_formula_sum   'V2 Cl4 O2'
_cell_volume   598.61832550
_cell_formula_units_Z   2
loop_
 _symmetry_equiv_pos_site_id
 _symmetry_equiv_pos_as_xyz
  1  'x, y, z'
loop_
 _atom_site_type_symbol
 _atom_site_label
 _atom_site_symmetry_multiplicity
 _atom_site_fract_x
 _atom_site_fract_y
 _atom_site_fract_z
 _atom_site_occupancy
  V  V1  1  0.440381  0.248735  0.500031  1
  V  V2  1  0.556290  0.748730  0.499969  1
  Cl  Cl3  1  0.498333  0.998876  0.428627  1
  Cl  Cl4  1  0.498338  0.998589  0.571373  1
  Cl  Cl5  1  0.498376  0.498568  0.428624  1
  Cl  Cl6  1  0.498295  0.498898  0.571376  1
  O  O7  1  0.015429  0.748723  0.499925  1
  O  O8  1  0.981242  0.248743  0.500075  1
