# generated using pymatgen
data_Ta2MnZn2O8
_symmetry_space_group_name_H-M   'P 1'
_cell_length_a   5.33061124
_cell_length_b   6.05061031
_cell_length_c   28.59539300
_cell_angle_alpha   90.00000000
_cell_angle_beta   90.00000000
_cell_angle_gamma   90.00000000
_symmetry_Int_Tables_number   1
_chemical_formula_structural   Ta2MnZn2O8
_chemical_formula_sum   'Ta4 Mn2 Zn4 O16'
_cell_volume   922.30011631
_cell_formula_units_Z   2
loop_
 _symmetry_equiv_pos_site_id
 _symmetry_equiv_pos_as_xyz
  1  'x, y, z'
loop_
 _atom_site_type_symbol
 _atom_site_label
 _atom_site_symmetry_multiplicity
 _atom_site_fract_x
 _atom_site_fract_y
 _atom_site_fract_z
 _atom_site_occupancy
  Ta  Ta1  1  0.768873  0.153834  0.419789  1
  Ta  Ta2  1  0.731127  0.153834  0.580211  1
  Ta  Ta3  1  0.231127  0.846166  0.580211  1
  Ta  Ta4  1  0.268873  0.846166  0.419789  1
  Mn  Mn5  1  0.750000  0.650170  0.500000  1
  Mn  Mn6  1  0.250000  0.349830  0.500000  1
  Zn  Zn7  1  0.719827  0.651289  0.631496  1
  Zn  Zn8  1  0.780173  0.651289  0.368504  1
  Zn  Zn9  1  0.280173  0.348712  0.368504  1
  Zn  Zn10  1  0.219827  0.348712  0.631496  1
  O  O11  1  0.434393  0.114918  0.451150  1
  O  O12  1  0.065607  0.114918  0.548850  1
  O  O13  1  0.565607  0.885082  0.548850  1
  O  O14  1  0.934393  0.885082  0.451150  1
  O  O15  1  0.908850  0.367614  0.458765  1
  O  O16  1  0.591150  0.367614  0.541235  1
  O  O17  1  0.091150  0.632387  0.541235  1
  O  O18  1  0.408850  0.632387  0.458765  1
  O  O19  1  0.074327  0.101728  0.379310  1
  O  O20  1  0.425673  0.101728  0.620690  1
  O  O21  1  0.137166  0.639481  0.370667  1
  O  O22  1  0.362834  0.639481  0.629333  1
  O  O23  1  0.862834  0.360519  0.629333  1
  O  O24  1  0.637166  0.360519  0.370667  1
  O  O25  1  0.574327  0.898273  0.379310  1
  O  O26  1  0.925673  0.898273  0.620690  1
