# generated using pymatgen
data_NaClO2
_symmetry_space_group_name_H-M   'P 1'
_cell_length_a   6.41926480
_cell_length_b   6.55703440
_cell_length_c   19.91491619
_cell_angle_alpha   89.96558797
_cell_angle_beta   90.00688588
_cell_angle_gamma   90.03802237
_symmetry_Int_Tables_number   1
_chemical_formula_structural   NaClO2
_chemical_formula_sum   'Na2 Cl2 O4'
_cell_volume   838.24516896
_cell_formula_units_Z   2
loop_
 _symmetry_equiv_pos_site_id
 _symmetry_equiv_pos_as_xyz
  1  'x, y, z'
loop_
 _atom_site_type_symbol
 _atom_site_label
 _atom_site_symmetry_multiplicity
 _atom_site_fract_x
 _atom_site_fract_y
 _atom_site_fract_z
 _atom_site_occupancy
  Na  Na1  1  0.954540  0.015344  0.497358  1
  Na  Na2  1  0.458844  0.515332  0.497839  1
  Cl  Cl3  1  0.959694  0.561704  0.502437  1
  Cl  Cl4  1  0.454065  0.061179  0.502504  1
  O  O5  1  0.760472  0.705211  0.499473  1
  O  O6  1  0.158136  0.706837  0.501080  1
  O  O7  1  0.653124  0.204852  0.498482  1
  O  O8  1  0.255533  0.206155  0.500828  1
