# generated using pymatgen
data_LuCoGe2
_symmetry_space_group_name_H-M   'P 1'
_cell_length_a   4.00139328
_cell_length_b   4.00657856
_cell_length_c   26.87821700
_cell_angle_alpha   90.00000000
_cell_angle_beta   90.00000000
_cell_angle_gamma   90.00000000
_symmetry_Int_Tables_number   1
_chemical_formula_structural   LuCoGe2
_chemical_formula_sum   'Lu2 Co2 Ge4'
_cell_volume   430.90879374
_cell_formula_units_Z   2
loop_
 _symmetry_equiv_pos_site_id
 _symmetry_equiv_pos_as_xyz
  1  'x, y, z'
loop_
 _atom_site_type_symbol
 _atom_site_label
 _atom_site_symmetry_multiplicity
 _atom_site_fract_x
 _atom_site_fract_y
 _atom_site_fract_z
 _atom_site_occupancy
  Lu  Lu1  1  -0.000000  0.000000  0.407817  1
  Lu  Lu2  1  0.500000  0.500000  0.592183  1
  Co  Co3  1  -0.000000  0.000000  0.544416  1
  Co  Co4  1  0.500000  0.500000  0.455584  1
  Ge  Ge5  1  0.500000  -0.000000  0.499909  1
  Ge  Ge6  1  0.000000  0.500000  0.500091  1
  Ge  Ge7  1  -0.000000  0.000000  0.628514  1
  Ge  Ge8  1  0.500000  0.500000  0.371486  1
