# generated using pymatgen
data_GaTe
_symmetry_space_group_name_H-M   'P 1'
_cell_length_a   4.12106218
_cell_length_b   12.07335608
_cell_length_c   25.45798800
_cell_angle_alpha   90.00000000
_cell_angle_beta   90.00000000
_cell_angle_gamma   99.82663648
_symmetry_Int_Tables_number   1
_chemical_formula_structural   GaTe
_chemical_formula_sum   'Ga6 Te6'
_cell_volume   1248.07984709
_cell_formula_units_Z   6
loop_
 _symmetry_equiv_pos_site_id
 _symmetry_equiv_pos_as_xyz
  1  'x, y, z'
loop_
 _atom_site_type_symbol
 _atom_site_label
 _atom_site_symmetry_multiplicity
 _atom_site_fract_x
 _atom_site_fract_y
 _atom_site_fract_z
 _atom_site_occupancy
  Ga  Ga1  1  0.181701  0.363402  0.457634  1
  Ga  Ga2  1  0.818299  0.636598  0.542366  1
  Ga  Ga3  1  0.184480  0.368961  0.553836  1
  Ga  Ga4  1  0.815520  0.631039  0.446164  1
  Ga  Ga5  1  0.549541  0.099082  0.513174  1
  Ga  Ga6  1  0.450459  0.900918  0.486826  1
  Te  Te7  1  0.074654  0.149306  0.578286  1
  Te  Te8  1  0.925346  0.850694  0.421714  1
  Te  Te9  1  0.270258  0.540517  0.392613  1
  Te  Te10  1  0.729742  0.459483  0.607387  1
  Te  Te11  1  0.616303  0.232608  0.426456  1
  Te  Te12  1  0.383697  0.767392  0.573544  1
