# generated using pymatgen
data_Mg(AgO2)2
_symmetry_space_group_name_H-M   'P 1'
_cell_length_a   3.05864104
_cell_length_b   9.65651994
_cell_length_c   24.24266387
_cell_angle_alpha   90.00000000
_cell_angle_beta   90.00000000
_cell_angle_gamma   90.00000000
_symmetry_Int_Tables_number   1
_chemical_formula_structural   Mg(AgO2)2
_chemical_formula_sum   'Mg2 Ag4 O8'
_cell_volume   716.02715498
_cell_formula_units_Z   2
loop_
 _symmetry_equiv_pos_site_id
 _symmetry_equiv_pos_as_xyz
  1  'x, y, z'
loop_
 _atom_site_type_symbol
 _atom_site_label
 _atom_site_symmetry_multiplicity
 _atom_site_fract_x
 _atom_site_fract_y
 _atom_site_fract_z
 _atom_site_occupancy
  Mg  Mg1  1  -0.000000  0.250000  0.555508  1
  Mg  Mg2  1  0.000000  0.750000  0.444492  1
  Ag  Ag3  1  0.500000  0.930639  0.558455  1
  Ag  Ag4  1  0.500000  0.069361  0.441545  1
  Ag  Ag5  1  0.500000  0.569361  0.558455  1
  Ag  Ag6  1  0.500000  0.430639  0.441545  1
  O  O7  1  0.500000  0.619494  0.412231  1
  O  O8  1  0.500000  0.380506  0.587769  1
  O  O9  1  0.500000  0.119494  0.587769  1
  O  O10  1  0.500000  0.880506  0.412231  1
  O  O11  1  0.500000  0.750000  0.516228  1
  O  O12  1  0.500000  0.250000  0.483772  1
  O  O13  1  -0.000000  -0.000000  0.500000  1
  O  O14  1  -0.000000  0.500000  0.500000  1
