# generated using pymatgen
data_Ti2ZnO5
_symmetry_space_group_name_H-M   'P 1'
_cell_length_a   3.65590089
_cell_length_b   11.97989914
_cell_length_c   26.99172900
_cell_angle_alpha   90.00000000
_cell_angle_beta   90.00000000
_cell_angle_gamma   90.00000000
_symmetry_Int_Tables_number   1
_chemical_formula_structural   Ti2ZnO5
_chemical_formula_sum   'Ti4 Zn2 O10'
_cell_volume   1182.16549839
_cell_formula_units_Z   2
loop_
 _symmetry_equiv_pos_site_id
 _symmetry_equiv_pos_as_xyz
  1  'x, y, z'
loop_
 _atom_site_type_symbol
 _atom_site_label
 _atom_site_symmetry_multiplicity
 _atom_site_fract_x
 _atom_site_fract_y
 _atom_site_fract_z
 _atom_site_occupancy
  Ti  Ti1  1  0.500000  0.346424  0.518582  1
  Ti  Ti2  1  0.000000  0.153576  0.481418  1
  Ti  Ti3  1  -0.000000  0.846424  0.481418  1
  Ti  Ti4  1  0.500000  0.653576  0.518582  1
  Zn  Zn5  1  0.500000  0.500000  0.596025  1
  Zn  Zn6  1  0.000000  -0.000000  0.403975  1
  O  O7  1  -0.000000  -0.000000  0.494617  1
  O  O8  1  0.500000  0.500000  0.505383  1
  O  O9  1  0.500000  0.820159  0.502115  1
  O  O10  1  -0.000000  0.679841  0.497885  1
  O  O11  1  -0.000000  0.320159  0.497885  1
  O  O12  1  0.500000  0.179841  0.502115  1
  O  O13  1  0.500000  0.351453  0.585776  1
  O  O14  1  -0.000000  0.148547  0.414224  1
  O  O15  1  0.500000  0.648547  0.585776  1
  O  O16  1  -0.000000  0.851453  0.414224  1
