# generated using pymatgen
data_Zn(InS2)2
_symmetry_space_group_name_H-M   'P 1'
_cell_length_a   3.91260306
_cell_length_b   3.91260282
_cell_length_c   29.54803400
_cell_angle_alpha   90.00000000
_cell_angle_beta   90.00000000
_cell_angle_gamma   119.99999375
_symmetry_Int_Tables_number   1
_chemical_formula_structural   Zn(InS2)2
_chemical_formula_sum   'Zn1 In2 S4'
_cell_volume   391.73358126
_cell_formula_units_Z   1
loop_
 _symmetry_equiv_pos_site_id
 _symmetry_equiv_pos_as_xyz
  1  'x, y, z'
loop_
 _atom_site_type_symbol
 _atom_site_label
 _atom_site_symmetry_multiplicity
 _atom_site_fract_x
 _atom_site_fract_y
 _atom_site_fract_z
 _atom_site_occupancy
  Zn  Zn1  1  -0.000000  -0.000000  0.358631  1
  In  In2  1  0.666667  0.333333  0.630329  1
  In  In3  1  0.333333  0.666667  0.493851  1
  S  S4  1  0.333333  0.666667  0.347179  1
  S  S5  1  0.666667  0.333333  0.548275  1
  S  S6  1  -0.000000  -0.000000  0.452520  1
  S  S7  1  -0.000000  -0.000000  0.669215  1
