# generated using pymatgen
data_ZnWF5
_symmetry_space_group_name_H-M   'P 1'
_cell_length_a   7.67768639
_cell_length_b   7.80129577
_cell_length_c   21.48108400
_cell_angle_alpha   90.00000000
_cell_angle_beta   90.00000000
_cell_angle_gamma   121.49726892
_symmetry_Int_Tables_number   1
_chemical_formula_structural   ZnWF5
_chemical_formula_sum   'Zn2 W2 F10'
_cell_volume   1097.06352783
_cell_formula_units_Z   2
loop_
 _symmetry_equiv_pos_site_id
 _symmetry_equiv_pos_as_xyz
  1  'x, y, z'
loop_
 _atom_site_type_symbol
 _atom_site_label
 _atom_site_symmetry_multiplicity
 _atom_site_fract_x
 _atom_site_fract_y
 _atom_site_fract_z
 _atom_site_occupancy
  Zn  Zn1  1  0.250000  0.500000  0.512849  1
  Zn  Zn2  1  0.750000  0.500000  0.487151  1
  W  W3  1  0.000000  0.000000  0.500000  1
  W  W4  1  0.500000  0.000000  0.500000  1
  F  F5  1  0.750000  0.000000  0.461674  1
  F  F6  1  0.250000  0.000000  0.538326  1
  F  F7  1  0.679472  0.246463  0.550755  1
  F  F8  1  0.820528  0.753537  0.550755  1
  F  F9  1  0.035383  0.203443  0.563302  1
  F  F10  1  0.464617  0.796557  0.563302  1
  F  F11  1  0.964617  0.796558  0.436698  1
  F  F12  1  0.535383  0.203443  0.436698  1
  F  F13  1  0.179472  0.246463  0.449245  1
  F  F14  1  0.320528  0.753537  0.449245  1
