# generated using pymatgen
data_TaTe5Pt
_symmetry_space_group_name_H-M   'P 1'
_cell_length_a   3.78291967
_cell_length_b   15.61777579
_cell_length_c   24.51896100
_cell_angle_alpha   90.00000000
_cell_angle_beta   90.00000000
_cell_angle_gamma   90.00000000
_symmetry_Int_Tables_number   1
_chemical_formula_structural   TaTe5Pt
_chemical_formula_sum   'Ta2 Te10 Pt2'
_cell_volume   1448.59961620
_cell_formula_units_Z   2
loop_
 _symmetry_equiv_pos_site_id
 _symmetry_equiv_pos_as_xyz
  1  'x, y, z'
loop_
 _atom_site_type_symbol
 _atom_site_label
 _atom_site_symmetry_multiplicity
 _atom_site_fract_x
 _atom_site_fract_y
 _atom_site_fract_z
 _atom_site_occupancy
  Ta  Ta1  1  0.000000  0.250000  0.503710  1
  Ta  Ta2  1  -0.000000  0.750000  0.496290  1
  Te  Te3  1  0.500000  0.250000  0.591677  1
  Te  Te4  1  0.500000  0.750000  0.408323  1
  Te  Te5  1  -0.000000  0.918372  0.439982  1
  Te  Te6  1  0.000000  0.081628  0.560018  1
  Te  Te7  1  0.500000  0.147109  0.442293  1
  Te  Te8  1  0.500000  0.852891  0.557707  1
  Te  Te9  1  0.500000  0.647109  0.557707  1
  Te  Te10  1  0.500000  0.352891  0.442293  1
  Te  Te11  1  0.000000  0.581628  0.439982  1
  Te  Te12  1  0.000000  0.418372  0.560018  1
  Pt  Pt13  1  0.500000  0.000000  0.500000  1
  Pt  Pt14  1  0.500000  0.500000  0.500000  1
