# generated using pymatgen
data_YWF5
_symmetry_space_group_name_H-M   'P 1'
_cell_length_a   4.44599032
_cell_length_b   8.66970960
_cell_length_c   24.43284000
_cell_angle_alpha   90.00000000
_cell_angle_beta   90.00000000
_cell_angle_gamma   90.00000000
_symmetry_Int_Tables_number   1
_chemical_formula_structural   YWF5
_chemical_formula_sum   'Y1 W1 F5'
_cell_volume   941.77468941
_cell_formula_units_Z   1
loop_
 _symmetry_equiv_pos_site_id
 _symmetry_equiv_pos_as_xyz
  1  'x, y, z'
loop_
 _atom_site_type_symbol
 _atom_site_label
 _atom_site_symmetry_multiplicity
 _atom_site_fract_x
 _atom_site_fract_y
 _atom_site_fract_z
 _atom_site_occupancy
  Y  Y1  1  0.000000  0.500000  0.500000  1
  W  W2  1  -0.000000  0.000000  0.500000  1
  F  F3  1  0.000000  0.500000  0.585038  1
  F  F4  1  0.000000  0.500000  0.414962  1
  F  F5  1  -0.000000  0.226723  0.500000  1
  F  F6  1  0.000000  0.773277  0.500000  1
  F  F7  1  0.500000  0.500000  0.500000  1
