# generated using pymatgen
data_V4ZnO10
_symmetry_space_group_name_H-M   'P 1'
_cell_length_a   3.69472863
_cell_length_b   11.43806431
_cell_length_c   23.47403967
_cell_angle_alpha   89.99789490
_cell_angle_beta   89.99546758
_cell_angle_gamma   89.99788037
_symmetry_Int_Tables_number   1
_chemical_formula_structural   V4ZnO10
_chemical_formula_sum   'V4 Zn1 O10'
_cell_volume   992.02567573
_cell_formula_units_Z   1
loop_
 _symmetry_equiv_pos_site_id
 _symmetry_equiv_pos_as_xyz
  1  'x, y, z'
loop_
 _atom_site_type_symbol
 _atom_site_label
 _atom_site_symmetry_multiplicity
 _atom_site_fract_x
 _atom_site_fract_y
 _atom_site_fract_z
 _atom_site_occupancy
  V  V1  1  0.748926  0.898213  0.519584  1
  V  V2  1  0.248864  0.086752  0.470494  1
  V  V3  1  0.248855  0.411978  0.470490  1
  V  V4  1  0.748820  0.600545  0.519657  1
  Zn  Zn5  1  0.748846  0.249383  0.532811  1
  O  O6  1  0.248851  0.249382  0.510966  1
  O  O7  1  0.748808  0.749383  0.493559  1
  O  O8  1  0.248885  0.922746  0.497771  1
  O  O9  1  0.748860  0.073139  0.503433  1
  O  O10  1  0.248812  0.575981  0.497748  1
  O  O11  1  0.748847  0.425607  0.503397  1
  O  O12  1  0.748714  0.610334  0.587713  1
  O  O13  1  0.248794  0.398031  0.402272  1
  O  O14  1  0.248860  0.100697  0.402305  1
  O  O15  1  0.748800  0.888338  0.587799  1
