# generated using pymatgen
data_MgW4O9
_symmetry_space_group_name_H-M   'P 1'
_cell_length_a   9.20563871
_cell_length_b   9.20673354
_cell_length_c   26.52819300
_cell_angle_alpha   90.00000000
_cell_angle_beta   90.00000000
_cell_angle_gamma   89.99662801
_symmetry_Int_Tables_number   1
_chemical_formula_structural   MgW4O9
_chemical_formula_sum   'Mg2 W8 O18'
_cell_volume   2248.36682268
_cell_formula_units_Z   2
loop_
 _symmetry_equiv_pos_site_id
 _symmetry_equiv_pos_as_xyz
  1  'x, y, z'
loop_
 _atom_site_type_symbol
 _atom_site_label
 _atom_site_symmetry_multiplicity
 _atom_site_fract_x
 _atom_site_fract_y
 _atom_site_fract_z
 _atom_site_occupancy
  Mg  Mg1  1  0.249508  0.240824  0.398484  1
  Mg  Mg2  1  0.748143  0.738825  0.601529  1
  W  W3  1  0.335828  0.525923  0.474215  1
  W  W4  1  0.463136  0.827035  0.525804  1
  W  W5  1  0.963682  0.326948  0.474349  1
  W  W6  1  0.835961  0.025291  0.525932  1
  W  W7  1  0.161778  0.954584  0.474104  1
  W  W8  1  0.534765  0.152844  0.474091  1
  W  W9  1  0.661889  0.453997  0.525704  1
  W  W10  1  0.034285  0.653056  0.525799  1
  O  O11  1  0.248718  0.740134  0.499983  1
  O  O12  1  0.749132  0.239646  0.500017  1
  O  O13  1  0.943539  0.646066  0.587736  1
  O  O14  1  0.655482  0.543348  0.587904  1
  O  O15  1  0.841813  0.933859  0.587768  1
  O  O16  1  0.552997  0.832223  0.587957  1
  O  O17  1  0.054274  0.333714  0.412368  1
  O  O18  1  0.342244  0.436336  0.412071  1
  O  O19  1  0.155727  0.045852  0.412231  1
  O  O20  1  0.444680  0.147373  0.411990  1
  O  O21  1  0.356854  0.011555  0.502615  1
  O  O22  1  0.020612  0.132103  0.503059  1
  O  O23  1  0.477400  0.347719  0.502597  1
  O  O24  1  0.141223  0.468511  0.502983  1
  O  O25  1  0.856578  0.511415  0.497074  1
  O  O26  1  0.977259  0.847758  0.497036  1
  O  O27  1  0.520405  0.632158  0.497277  1
  O  O28  1  0.640974  0.968326  0.497329  1
