# generated using pymatgen
data_DyCoSi2
_symmetry_space_group_name_H-M   'P 1'
_cell_length_a   3.99180311
_cell_length_b   3.99120095
_cell_length_c   26.72682600
_cell_angle_alpha   90.00000000
_cell_angle_beta   90.00000000
_cell_angle_gamma   90.00000000
_symmetry_Int_Tables_number   1
_chemical_formula_structural   DyCoSi2
_chemical_formula_sum   'Dy2 Co2 Si4'
_cell_volume   425.81415354
_cell_formula_units_Z   2
loop_
 _symmetry_equiv_pos_site_id
 _symmetry_equiv_pos_as_xyz
  1  'x, y, z'
loop_
 _atom_site_type_symbol
 _atom_site_label
 _atom_site_symmetry_multiplicity
 _atom_site_fract_x
 _atom_site_fract_y
 _atom_site_fract_z
 _atom_site_occupancy
  Dy  Dy1  1  0.500000  0.500000  0.591916  1
  Dy  Dy2  1  -0.000000  0.000000  0.408084  1
  Co  Co3  1  0.500000  0.500000  0.458748  1
  Co  Co4  1  -0.000000  0.000000  0.541252  1
  Si  Si5  1  -0.000000  0.500000  0.499983  1
  Si  Si6  1  0.500000  0.000000  0.500017  1
  Si  Si7  1  0.000000  -0.000000  0.623521  1
  Si  Si8  1  0.500000  0.500000  0.376479  1
