# generated using pymatgen
data_PbWO4
_symmetry_space_group_name_H-M   'P 1'
_cell_length_a   5.10630859
_cell_length_b   13.42356901
_cell_length_c   23.58927624
_cell_angle_alpha   90.93091550
_cell_angle_beta   90.00000000
_cell_angle_gamma   90.00000000
_symmetry_Int_Tables_number   1
_chemical_formula_structural   PbWO4
_chemical_formula_sum   'Pb4 W4 O16'
_cell_volume   1616.71082996
_cell_formula_units_Z   4
loop_
 _symmetry_equiv_pos_site_id
 _symmetry_equiv_pos_as_xyz
  1  'x, y, z'
loop_
 _atom_site_type_symbol
 _atom_site_label
 _atom_site_symmetry_multiplicity
 _atom_site_fract_x
 _atom_site_fract_y
 _atom_site_fract_z
 _atom_site_occupancy
  Pb  Pb1  1  0.177412  0.200272  0.568635  1
  Pb  Pb2  1  0.677412  0.299728  0.431365  1
  Pb  Pb3  1  0.822588  0.799728  0.431365  1
  Pb  Pb4  1  0.322588  0.700272  0.568635  1
  W  W5  1  0.750580  0.057825  0.473114  1
  W  W6  1  0.250580  0.442175  0.526886  1
  W  W7  1  0.249420  0.942175  0.526886  1
  W  W8  1  0.749420  0.557825  0.473114  1
  O  O9  1  0.042034  0.983961  0.447340  1
  O  O10  1  0.542034  0.516039  0.552660  1
  O  O11  1  0.957966  0.016039  0.552660  1
  O  O12  1  0.457966  0.483961  0.447340  1
  O  O13  1  0.438776  0.076577  0.525076  1
  O  O14  1  0.938776  0.423423  0.474924  1
  O  O15  1  0.561224  0.923423  0.474924  1
  O  O16  1  0.061224  0.576577  0.525076  1
  O  O17  1  0.615024  0.104536  0.409218  1
  O  O18  1  0.115024  0.395464  0.590782  1
  O  O19  1  0.384976  0.895464  0.590782  1
  O  O20  1  0.884976  0.604536  0.409218  1
  O  O21  1  0.886756  0.187670  0.494497  1
  O  O22  1  0.386756  0.312330  0.505503  1
  O  O23  1  0.113244  0.812330  0.505503  1
  O  O24  1  0.613244  0.687670  0.494497  1
