# generated using pymatgen
data_Hg3SO6
_symmetry_space_group_name_H-M   'P 1'
_cell_length_a   7.05640075
_cell_length_b   7.00769408
_cell_length_c   21.99340400
_cell_angle_alpha   90.00000000
_cell_angle_beta   90.00000000
_cell_angle_gamma   119.95519412
_symmetry_Int_Tables_number   1
_chemical_formula_structural   Hg3SO6
_chemical_formula_sum   'Hg3 S1 O6'
_cell_volume   942.27432933
_cell_formula_units_Z   1
loop_
 _symmetry_equiv_pos_site_id
 _symmetry_equiv_pos_as_xyz
  1  'x, y, z'
loop_
 _atom_site_type_symbol
 _atom_site_label
 _atom_site_symmetry_multiplicity
 _atom_site_fract_x
 _atom_site_fract_y
 _atom_site_fract_z
 _atom_site_occupancy
  Hg  Hg1  1  0.689545  0.193832  0.496083  1
  Hg  Hg2  1  0.698498  0.697049  0.497188  1
  Hg  Hg3  1  0.196196  0.687884  0.502128  1
  S  S4  1  0.234400  0.219094  0.501460  1
  O  O5  1  0.274040  0.404575  0.543081  1
  O  O6  1  0.247691  0.047656  0.538386  1
  O  O7  1  0.528940  0.859544  0.476157  1
  O  O8  1  0.408803  0.304217  0.453451  1
  O  O9  1  0.859357  0.526648  0.520112  1
  O  O10  1  0.015945  0.125788  0.471954  1
