# generated using pymatgen
data_TiNbS4
_symmetry_space_group_name_H-M   'P 1'
_cell_length_a   3.39015456
_cell_length_b   5.89162415
_cell_length_c   23.01816700
_cell_angle_alpha   90.00000000
_cell_angle_beta   90.00000000
_cell_angle_gamma   90.00000000
_symmetry_Int_Tables_number   1
_chemical_formula_structural   TiNbS4
_chemical_formula_sum   'Ti1 Nb1 S4'
_cell_volume   459.75373787
_cell_formula_units_Z   1
loop_
 _symmetry_equiv_pos_site_id
 _symmetry_equiv_pos_as_xyz
  1  'x, y, z'
loop_
 _atom_site_type_symbol
 _atom_site_label
 _atom_site_symmetry_multiplicity
 _atom_site_fract_x
 _atom_site_fract_y
 _atom_site_fract_z
 _atom_site_occupancy
  Ti  Ti1  1  0.500000  0.500000  0.500000  1
  Nb  Nb2  1  0.000000  0.000000  0.500000  1
  S  S3  1  0.500000  0.173518  0.434408  1
  S  S4  1  -0.000000  0.337450  0.563872  1
  S  S5  1  0.000000  0.662550  0.436128  1
  S  S6  1  0.500000  0.826482  0.565592  1
