# generated using pymatgen
data_VO2F
_symmetry_space_group_name_H-M   'P 1'
_cell_length_a   4.95542413
_cell_length_b   5.14747726
_cell_length_c   22.59815551
_cell_angle_alpha   90.08491673
_cell_angle_beta   90.00000000
_cell_angle_gamma   90.00000000
_symmetry_Int_Tables_number   1
_chemical_formula_structural   VO2F
_chemical_formula_sum   'V2 O4 F2'
_cell_volume   576.43160429
_cell_formula_units_Z   2
loop_
 _symmetry_equiv_pos_site_id
 _symmetry_equiv_pos_as_xyz
  1  'x, y, z'
loop_
 _atom_site_type_symbol
 _atom_site_label
 _atom_site_symmetry_multiplicity
 _atom_site_fract_x
 _atom_site_fract_y
 _atom_site_fract_z
 _atom_site_occupancy
  V  V1  1  0.255635  0.199744  0.493879  1
  V  V2  1  0.744365  0.699744  0.493879  1
  O  O3  1  0.161594  0.184545  0.561497  1
  O  O4  1  0.540767  0.989377  0.486959  1
  O  O5  1  0.838406  0.684545  0.561497  1
  O  O6  1  0.459233  0.489377  0.486959  1
  F  F7  1  0.037984  0.915995  0.457663  1
  F  F8  1  0.962017  0.415995  0.457663  1
