# generated using pymatgen
data_Ta2PdS6
_symmetry_space_group_name_H-M   'P 1'
_cell_length_a   3.29400167
_cell_length_b   9.31326982
_cell_length_c   23.65399100
_cell_angle_alpha   90.00000000
_cell_angle_beta   90.00000000
_cell_angle_gamma   100.18601324
_symmetry_Int_Tables_number   1
_chemical_formula_structural   Ta2PdS6
_chemical_formula_sum   'Ta2 Pd1 S6'
_cell_volume   714.21819908
_cell_formula_units_Z   1
loop_
 _symmetry_equiv_pos_site_id
 _symmetry_equiv_pos_as_xyz
  1  'x, y, z'
loop_
 _atom_site_type_symbol
 _atom_site_label
 _atom_site_symmetry_multiplicity
 _atom_site_fract_x
 _atom_site_fract_y
 _atom_site_fract_z
 _atom_site_occupancy
  Ta  Ta1  1  0.349395  0.698789  0.519075  1
  Ta  Ta2  1  0.650605  0.301211  0.480925  1
  Pd  Pd3  1  0.000000  0.000000  0.500000  1
  S  S4  1  0.757824  0.515648  0.554474  1
  S  S5  1  0.108620  0.217242  0.553782  1
  S  S6  1  0.891380  0.782758  0.446218  1
  S  S7  1  0.242176  0.484351  0.445526  1
  S  S8  1  0.918772  0.837545  0.577367  1
  S  S9  1  0.081228  0.162455  0.422633  1
