# generated using pymatgen
data_RbO2
_symmetry_space_group_name_H-M   'P 1'
_cell_length_a   4.97631941
_cell_length_b   4.97631941
_cell_length_c   25.69937200
_cell_angle_alpha   90.00000000
_cell_angle_beta   90.00000000
_cell_angle_gamma   90.00000000
_symmetry_Int_Tables_number   1
_chemical_formula_structural   RbO2
_chemical_formula_sum   'Rb1 O2'
_cell_volume   636.41294853
_cell_formula_units_Z   1
loop_
 _symmetry_equiv_pos_site_id
 _symmetry_equiv_pos_as_xyz
  1  'x, y, z'
loop_
 _atom_site_type_symbol
 _atom_site_label
 _atom_site_symmetry_multiplicity
 _atom_site_fract_x
 _atom_site_fract_y
 _atom_site_fract_z
 _atom_site_occupancy
  Rb  Rb1  1  -0.000000  -0.000000  0.500000  1
  O  O2  1  0.000000  0.000000  0.604348  1
  O  O3  1  -0.000000  0.000000  0.395652  1
