# generated using pymatgen
data_MgTi
_symmetry_space_group_name_H-M   'P 1'
_cell_length_a   2.97032393
_cell_length_b   2.97032409
_cell_length_c   32.46292800
_cell_angle_alpha   90.00000000
_cell_angle_beta   90.00000000
_cell_angle_gamma   120.00000924
_symmetry_Int_Tables_number   1
_chemical_formula_structural   MgTi
_chemical_formula_sum   'Mg3 Ti3'
_cell_volume   248.04240373
_cell_formula_units_Z   3
loop_
 _symmetry_equiv_pos_site_id
 _symmetry_equiv_pos_as_xyz
  1  'x, y, z'
loop_
 _atom_site_type_symbol
 _atom_site_label
 _atom_site_symmetry_multiplicity
 _atom_site_fract_x
 _atom_site_fract_y
 _atom_site_fract_z
 _atom_site_occupancy
  Mg  Mg1  1  -0.000000  0.000000  0.464110  1
  Mg  Mg2  1  0.666667  0.333333  0.690632  1
  Mg  Mg3  1  -0.000000  0.000000  0.306006  1
  Ti  Ti4  1  0.666667  0.333333  0.544298  1
  Ti  Ti5  1  -0.000000  -0.000000  0.610584  1
  Ti  Ti6  1  0.666667  0.333333  0.384369  1
