# generated using pymatgen
data_V2NiSe4
_symmetry_space_group_name_H-M   'P 1'
_cell_length_a   3.58178610
_cell_length_b   3.58178632
_cell_length_c   28.74886700
_cell_angle_alpha   90.00000000
_cell_angle_beta   90.00000000
_cell_angle_gamma   59.98505150
_symmetry_Int_Tables_number   1
_chemical_formula_structural   V2NiSe4
_chemical_formula_sum   'V2 Ni1 Se4'
_cell_volume   319.36347703
_cell_formula_units_Z   1
loop_
 _symmetry_equiv_pos_site_id
 _symmetry_equiv_pos_as_xyz
  1  'x, y, z'
loop_
 _atom_site_type_symbol
 _atom_site_label
 _atom_site_symmetry_multiplicity
 _atom_site_fract_x
 _atom_site_fract_y
 _atom_site_fract_z
 _atom_site_occupancy
  V  V1  1  0.999627  0.999627  0.602803  1
  V  V2  1  0.000373  0.000373  0.397197  1
  Ni  Ni3  1  0.000000  -0.000000  0.500000  1
  Se  Se4  1  0.666498  0.666498  0.548387  1
  Se  Se5  1  0.333502  0.333502  0.451613  1
  Se  Se6  1  0.333241  0.333241  0.652182  1
  Se  Se7  1  0.666759  0.666759  0.347818  1
