# generated using pymatgen
data_CuWO3F2
_symmetry_space_group_name_H-M   'P 1'
_cell_length_a   3.85192529
_cell_length_b   9.11367371
_cell_length_c   28.63057500
_cell_angle_alpha   90.00000000
_cell_angle_beta   90.00000000
_cell_angle_gamma   90.00000000
_symmetry_Int_Tables_number   1
_chemical_formula_structural   CuWO3F2
_chemical_formula_sum   'Cu2 W2 O6 F4'
_cell_volume   1005.08178229
_cell_formula_units_Z   2
loop_
 _symmetry_equiv_pos_site_id
 _symmetry_equiv_pos_as_xyz
  1  'x, y, z'
loop_
 _atom_site_type_symbol
 _atom_site_label
 _atom_site_symmetry_multiplicity
 _atom_site_fract_x
 _atom_site_fract_y
 _atom_site_fract_z
 _atom_site_occupancy
  Cu  Cu1  1  0.257136  0.500000  0.500000  1
  Cu  Cu2  1  0.257136  0.000000  0.500000  1
  W  W3  1  0.248188  0.250000  0.598488  1
  W  W4  1  0.266083  0.750000  0.401512  1
  O  O5  1  0.264710  0.604235  0.449434  1
  O  O6  1  0.249562  0.395765  0.550566  1
  O  O7  1  0.249562  0.104235  0.550566  1
  O  O8  1  0.748948  0.250000  0.599392  1
  O  O9  1  0.765323  0.750000  0.400608  1
  O  O10  1  0.264710  0.895765  0.449434  1
  F  F11  1  0.265343  0.898227  0.354635  1
  F  F12  1  0.248928  0.101773  0.645365  1
  F  F13  1  0.248928  0.398227  0.645365  1
  F  F14  1  0.265343  0.601773  0.354635  1
