# generated using pymatgen
data_GaH5(NF)2
_symmetry_space_group_name_H-M   'P 1'
_cell_length_a   4.87456116
_cell_length_b   5.88961318
_cell_length_c   25.01999900
_cell_angle_alpha   90.00000000
_cell_angle_beta   90.00000000
_cell_angle_gamma   90.00000000
_symmetry_Int_Tables_number   1
_chemical_formula_structural   GaH5(NF)2
_chemical_formula_sum   'Ga2 H10 N4 F4'
_cell_volume   718.30614825
_cell_formula_units_Z   2
loop_
 _symmetry_equiv_pos_site_id
 _symmetry_equiv_pos_as_xyz
  1  'x, y, z'
loop_
 _atom_site_type_symbol
 _atom_site_label
 _atom_site_symmetry_multiplicity
 _atom_site_fract_x
 _atom_site_fract_y
 _atom_site_fract_z
 _atom_site_occupancy
  Ga  Ga1  1  0.500000  0.500000  0.500000  1
  Ga  Ga2  1  -0.000000  0.000000  0.500000  1
  H  H3  1  0.446982  -0.000000  0.448501  1
  H  H4  1  0.218543  0.851539  0.415131  1
  H  H5  1  0.218543  0.148461  0.415131  1
  H  H6  1  0.107632  0.500000  0.432920  1
  H  H7  1  0.418850  0.500000  0.399645  1
  H  H8  1  0.581150  0.500000  0.600355  1
  H  H9  1  0.892368  0.500000  0.567080  1
  H  H10  1  0.781457  0.851539  0.584869  1
  H  H11  1  0.781457  0.148461  0.584869  1
  H  H12  1  0.553018  -0.000000  0.551499  1
  N  N13  1  0.315878  0.500000  0.434808  1
  N  N14  1  0.245896  0.000000  0.436036  1
  N  N15  1  0.754104  -0.000000  0.563964  1
  N  N16  1  0.684122  0.500000  0.565192  1
  F  F17  1  0.766676  0.239707  0.468081  1
  F  F18  1  0.766676  0.760294  0.468081  1
  F  F19  1  0.233324  0.239707  0.531919  1
  F  F20  1  0.233324  0.760294  0.531919  1
