# generated using pymatgen
data_CaTeO3
_symmetry_space_group_name_H-M   'P 1'
_cell_length_a   5.66173495
_cell_length_b   8.48750084
_cell_length_c   31.19398653
_cell_angle_alpha   90.08421805
_cell_angle_beta   90.00000000
_cell_angle_gamma   90.00000000
_symmetry_Int_Tables_number   1
_chemical_formula_structural   CaTeO3
_chemical_formula_sum   'Ca6 Te6 O18'
_cell_volume   1498.99359060
_cell_formula_units_Z   6
loop_
 _symmetry_equiv_pos_site_id
 _symmetry_equiv_pos_as_xyz
  1  'x, y, z'
loop_
 _atom_site_type_symbol
 _atom_site_label
 _atom_site_symmetry_multiplicity
 _atom_site_fract_x
 _atom_site_fract_y
 _atom_site_fract_z
 _atom_site_occupancy
  Ca  Ca1  1  0.177824  0.098398  0.481305  1
  Ca  Ca2  1  0.677824  0.743841  0.518695  1
  Ca  Ca3  1  0.166092  0.473808  0.545509  1
  Ca  Ca4  1  0.733203  0.603595  0.627318  1
  Ca  Ca5  1  0.233203  0.238645  0.372682  1
  Ca  Ca6  1  0.666092  0.368431  0.454491  1
  Te  Te7  1  0.659375  0.238851  0.557805  1
  Te  Te8  1  0.159375  0.603388  0.442195  1
  Te  Te9  1  0.748923  0.478187  0.340560  1
  Te  Te10  1  0.248923  0.364052  0.659440  1
  Te  Te11  1  0.742251  0.970300  0.412082  1
  Te  Te12  1  0.242251  0.871940  0.587918  1
  O  O13  1  0.763328  0.446688  0.570465  1
  O  O14  1  0.263328  0.395552  0.429535  1
  O  O15  1  0.429173  0.289130  0.515332  1
  O  O16  1  0.929173  0.553110  0.484668  1
  O  O17  1  0.350403  0.947982  0.534534  1
  O  O18  1  0.444536  0.059209  0.425074  1
  O  O19  1  0.284404  0.297154  0.600947  1
  O  O20  1  0.784404  0.545086  0.399053  1
  O  O21  1  0.557382  0.430460  0.670638  1
  O  O22  1  0.057382  0.411779  0.329362  1
  O  O23  1  0.103521  0.559460  0.648992  1
  O  O24  1  0.426125  0.687484  0.582260  1
  O  O25  1  0.893561  0.226654  0.514140  1
  O  O26  1  0.393561  0.615586  0.485860  1
  O  O27  1  0.944536  0.783031  0.574926  1
  O  O28  1  0.603521  0.282779  0.351008  1
  O  O29  1  0.926125  0.154755  0.417740  1
  O  O30  1  0.850403  0.894258  0.465466  1
