# generated using pymatgen
data_Ba3BPO7
_symmetry_space_group_name_H-M   'P 1'
_cell_length_a   5.93311297
_cell_length_b   5.93311310
_cell_length_c   26.45941200
_cell_angle_alpha   90.00000000
_cell_angle_beta   90.00000000
_cell_angle_gamma   120.00000578
_symmetry_Int_Tables_number   1
_chemical_formula_structural   Ba3BPO7
_chemical_formula_sum   'Ba3 B1 P1 O7'
_cell_volume   806.63310078
_cell_formula_units_Z   1
loop_
 _symmetry_equiv_pos_site_id
 _symmetry_equiv_pos_as_xyz
  1  'x, y, z'
loop_
 _atom_site_type_symbol
 _atom_site_label
 _atom_site_symmetry_multiplicity
 _atom_site_fract_x
 _atom_site_fract_y
 _atom_site_fract_z
 _atom_site_occupancy
  Ba  Ba1  1  0.666667  0.333333  0.555626  1
  Ba  Ba2  1  0.333333  0.666667  0.443094  1
  Ba  Ba3  1  0.333333  0.666667  0.633390  1
  B  B4  1  0.000000  0.000000  0.580758  1
  P  P5  1  0.666667  0.333333  0.405778  1
  O  O6  1  0.135444  0.270887  0.581225  1
  O  O7  1  0.524827  0.049652  0.389836  1
  O  O8  1  0.524827  0.475173  0.389836  1
  O  O9  1  0.135444  0.864556  0.581225  1
  O  O10  1  0.950348  0.475173  0.389836  1
  O  O11  1  0.666667  0.333333  0.468171  1
  O  O12  1  0.729113  0.864556  0.581225  1
