# generated using pymatgen
data_PtSe2
_symmetry_space_group_name_H-M   'P 1'
_cell_length_a   3.73579098
_cell_length_b   3.73579058
_cell_length_c   22.61338900
_cell_angle_alpha   90.00000000
_cell_angle_beta   90.00000000
_cell_angle_gamma   119.99999489
_symmetry_Int_Tables_number   1
_chemical_formula_structural   PtSe2
_chemical_formula_sum   'Pt1 Se2'
_cell_volume   273.31369858
_cell_formula_units_Z   1
loop_
 _symmetry_equiv_pos_site_id
 _symmetry_equiv_pos_as_xyz
  1  'x, y, z'
loop_
 _atom_site_type_symbol
 _atom_site_label
 _atom_site_symmetry_multiplicity
 _atom_site_fract_x
 _atom_site_fract_y
 _atom_site_fract_z
 _atom_site_occupancy
  Pt  Pt1  1  0.000000  -0.000000  0.500000  1
  Se  Se2  1  0.666667  0.333333  0.558721  1
  Se  Se3  1  0.333333  0.666667  0.441279  1
