# generated using pymatgen
data_Ge3Bi2O9
_symmetry_space_group_name_H-M   'P 1'
_cell_length_a   7.27951416
_cell_length_b   7.27951298
_cell_length_c   25.49623900
_cell_angle_alpha   90.00000000
_cell_angle_beta   90.00000000
_cell_angle_gamma   120.00000538
_symmetry_Int_Tables_number   1
_chemical_formula_structural   Ge3Bi2O9
_chemical_formula_sum   'Ge3 Bi2 O9'
_cell_volume   1170.06893612
_cell_formula_units_Z   1
loop_
 _symmetry_equiv_pos_site_id
 _symmetry_equiv_pos_as_xyz
  1  'x, y, z'
loop_
 _atom_site_type_symbol
 _atom_site_label
 _atom_site_symmetry_multiplicity
 _atom_site_fract_x
 _atom_site_fract_y
 _atom_site_fract_z
 _atom_site_occupancy
  Ge  Ge1  1  0.891586  0.283026  0.500000  1
  Ge  Ge2  1  0.391440  0.108414  0.500000  1
  Ge  Ge3  1  0.716974  0.608560  0.500000  1
  Bi  Bi4  1  -0.000000  0.000000  0.596506  1
  Bi  Bi5  1  -0.000000  0.000000  0.403494  1
  O  O6  1  0.739925  0.751257  0.441985  1
  O  O7  1  0.248743  0.988667  0.441985  1
  O  O8  1  0.011333  0.260075  0.441985  1
  O  O9  1  0.011333  0.260075  0.558015  1
  O  O10  1  0.248743  0.988667  0.558015  1
  O  O11  1  0.920802  0.539219  0.500000  1
  O  O12  1  0.460781  0.381584  0.500000  1
  O  O13  1  0.618416  0.079198  0.500000  1
  O  O14  1  0.739925  0.751257  0.558015  1
