# generated using pymatgen
data_TaSe2
_symmetry_space_group_name_H-M   'P 1'
_cell_length_a   12.64864207
_cell_length_b   12.64930316
_cell_length_c   23.61286000
_cell_angle_alpha   90.00000000
_cell_angle_beta   90.00000000
_cell_angle_gamma   59.99868443
_symmetry_Int_Tables_number   1
_chemical_formula_structural   TaSe2
_chemical_formula_sum   'Ta13 Se26'
_cell_volume   3271.77907615
_cell_formula_units_Z   13
loop_
 _symmetry_equiv_pos_site_id
 _symmetry_equiv_pos_as_xyz
  1  'x, y, z'
loop_
 _atom_site_type_symbol
 _atom_site_label
 _atom_site_symmetry_multiplicity
 _atom_site_fract_x
 _atom_site_fract_y
 _atom_site_fract_z
 _atom_site_occupancy
  Ta  Ta1  1  -0.000000  0.000000  0.500000  1
  Ta  Ta2  1  0.786314  0.930574  0.499858  1
  Ta  Ta3  1  0.213686  0.069426  0.500142  1
  Ta  Ta4  1  0.282984  0.786446  0.499591  1
  Ta  Ta5  1  0.717016  0.213554  0.500409  1
  Ta  Ta6  1  0.069282  0.717149  0.500023  1
  Ta  Ta7  1  0.930718  0.282851  0.499977  1
  Ta  Ta8  1  0.848521  0.641059  0.500287  1
  Ta  Ta9  1  0.151479  0.358941  0.499713  1
  Ta  Ta10  1  0.510327  0.848696  0.500122  1
  Ta  Ta11  1  0.489673  0.151304  0.499878  1
  Ta  Ta12  1  0.358868  0.489506  0.499409  1
  Ta  Ta13  1  0.641132  0.510494  0.500591  1
  Se  Se14  1  0.949459  0.876230  0.576206  1
  Se  Se15  1  0.050541  0.123770  0.423794  1
  Se  Se16  1  0.174445  0.949124  0.576116  1
  Se  Se17  1  0.825555  0.050876  0.423884  1
  Se  Se18  1  0.876616  0.173994  0.576426  1
  Se  Se19  1  0.123384  0.826006  0.423574  1
  Se  Se20  1  0.249663  0.648774  0.574395  1
  Se  Se21  1  0.750337  0.351226  0.425605  1
  Se  Se22  1  0.101832  0.249445  0.574748  1
  Se  Se23  1  0.898168  0.750555  0.425252  1
  Se  Se24  1  0.648953  0.101388  0.574840  1
  Se  Se25  1  0.351047  0.898612  0.425160  1
  Se  Se26  1  0.029263  0.564490  0.564897  1
  Se  Se27  1  0.970737  0.435510  0.435103  1
  Se  Se28  1  0.406412  0.029055  0.565017  1
  Se  Se29  1  0.593588  0.970945  0.434983  1
  Se  Se30  1  0.564103  0.406494  0.565063  1
  Se  Se31  1  0.435897  0.593506  0.434937  1
  Se  Se32  1  0.710546  0.803902  0.566196  1
  Se  Se33  1  0.289454  0.196098  0.433804  1
  Se  Se34  1  0.485211  0.710859  0.566131  1
  Se  Se35  1  0.514789  0.289141  0.433869  1
  Se  Se36  1  0.804152  0.485353  0.566401  1
  Se  Se37  1  0.195848  0.514647  0.433599  1
  Se  Se38  1  0.333317  0.333446  0.565046  1
  Se  Se39  1  0.666683  0.666554  0.434954  1
