# generated using pymatgen
data_ZrBrN
_symmetry_space_group_name_H-M   'P 1'
_cell_length_a   3.63648035
_cell_length_b   4.15704475
_cell_length_c   25.98682400
_cell_angle_alpha   90.00000000
_cell_angle_beta   90.00000000
_cell_angle_gamma   90.00000000
_symmetry_Int_Tables_number   1
_chemical_formula_structural   ZrBrN
_chemical_formula_sum   'Zr2 Br2 N2'
_cell_volume   392.84311849
_cell_formula_units_Z   2
loop_
 _symmetry_equiv_pos_site_id
 _symmetry_equiv_pos_as_xyz
  1  'x, y, z'
loop_
 _atom_site_type_symbol
 _atom_site_label
 _atom_site_symmetry_multiplicity
 _atom_site_fract_x
 _atom_site_fract_y
 _atom_site_fract_z
 _atom_site_occupancy
  Zr  Zr1  1  -0.000000  0.500000  0.534404  1
  Zr  Zr2  1  0.500000  0.000000  0.465596  1
  Br  Br3  1  -0.000000  -0.000000  0.385004  1
  Br  Br4  1  0.500000  0.500000  0.614996  1
  N  N5  1  -0.000000  0.000000  0.511224  1
  N  N6  1  0.500000  0.500000  0.488776  1
