# generated using pymatgen
data_NdB4
_symmetry_space_group_name_H-M   'P 1'
_cell_length_a   4.62818972
_cell_length_b   4.62819017
_cell_length_c   20.01755400
_cell_angle_alpha   90.00000000
_cell_angle_beta   90.00000000
_cell_angle_gamma   89.99541467
_symmetry_Int_Tables_number   1
_chemical_formula_structural   NdB4
_chemical_formula_sum   'Nd1 B4'
_cell_volume   428.77885096
_cell_formula_units_Z   1
loop_
 _symmetry_equiv_pos_site_id
 _symmetry_equiv_pos_as_xyz
  1  'x, y, z'
loop_
 _atom_site_type_symbol
 _atom_site_label
 _atom_site_symmetry_multiplicity
 _atom_site_fract_x
 _atom_site_fract_y
 _atom_site_fract_z
 _atom_site_occupancy
  Nd  Nd1  1  -0.000000  -0.000000  0.500000  1
  B  B2  1  0.235260  0.499915  0.500155  1
  B  B3  1  0.500085  0.764740  0.499845  1
  B  B4  1  0.764740  0.500085  0.499845  1
  B  B5  1  0.499915  0.235260  0.500155  1
