# generated using pymatgen
data_TbBr
_symmetry_space_group_name_H-M   'P 1'
_cell_length_a   3.79312563
_cell_length_b   3.79312497
_cell_length_c   26.63843900
_cell_angle_alpha   90.00000000
_cell_angle_beta   90.00000000
_cell_angle_gamma   59.99999415
_symmetry_Int_Tables_number   1
_chemical_formula_structural   TbBr
_chemical_formula_sum   'Tb2 Br2'
_cell_volume   331.92025559
_cell_formula_units_Z   2
loop_
 _symmetry_equiv_pos_site_id
 _symmetry_equiv_pos_as_xyz
  1  'x, y, z'
loop_
 _atom_site_type_symbol
 _atom_site_label
 _atom_site_symmetry_multiplicity
 _atom_site_fract_x
 _atom_site_fract_y
 _atom_site_fract_z
 _atom_site_occupancy
  Tb  Tb1  1  0.333333  0.333333  0.447966  1
  Tb  Tb2  1  0.666667  0.666667  0.552034  1
  Br  Br3  1  0.000000  0.000000  0.375347  1
  Br  Br4  1  0.000000  0.000000  0.624653  1
