# generated using pymatgen
data_ZrPbF6
_symmetry_space_group_name_H-M   'P 1'
_cell_length_a   6.80461115
_cell_length_b   6.80461163
_cell_length_c   25.75717300
_cell_angle_alpha   90.00000000
_cell_angle_beta   90.00000000
_cell_angle_gamma   114.11899790
_symmetry_Int_Tables_number   1
_chemical_formula_structural   ZrPbF6
_chemical_formula_sum   'Zr2 Pb2 F12'
_cell_volume   1088.50968865
_cell_formula_units_Z   2
loop_
 _symmetry_equiv_pos_site_id
 _symmetry_equiv_pos_as_xyz
  1  'x, y, z'
loop_
 _atom_site_type_symbol
 _atom_site_label
 _atom_site_symmetry_multiplicity
 _atom_site_fract_x
 _atom_site_fract_y
 _atom_site_fract_z
 _atom_site_occupancy
  Zr  Zr1  1  0.750000  0.250000  0.500000  1
  Zr  Zr2  1  0.250000  0.750000  0.500000  1
  Pb  Pb3  1  0.250000  0.250000  0.599327  1
  Pb  Pb4  1  0.750000  0.750000  0.400673  1
  F  F5  1  0.309374  0.561063  0.557245  1
  F  F6  1  0.190626  0.938937  0.557245  1
  F  F7  1  0.061063  0.809374  0.442755  1
  F  F8  1  0.438937  0.690626  0.442755  1
  F  F9  1  0.925277  0.574723  0.531539  1
  F  F10  1  0.574723  0.925277  0.531539  1
  F  F11  1  0.074723  0.425277  0.468461  1
  F  F12  1  0.425277  0.074723  0.468461  1
  F  F13  1  0.561063  0.309374  0.557245  1
  F  F14  1  0.938937  0.190626  0.557245  1
  F  F15  1  0.809374  0.061063  0.442755  1
  F  F16  1  0.690626  0.438937  0.442755  1
