# generated using pymatgen
data_LiCuCO3
_symmetry_space_group_name_H-M   'P 1'
_cell_length_a   4.97823116
_cell_length_b   5.05976486
_cell_length_c   23.35431700
_cell_angle_alpha   90.00000000
_cell_angle_beta   90.00000000
_cell_angle_gamma   61.59881267
_symmetry_Int_Tables_number   1
_chemical_formula_structural   LiCuCO3
_chemical_formula_sum   'Li2 Cu2 C2 O6'
_cell_volume   517.46013851
_cell_formula_units_Z   2
loop_
 _symmetry_equiv_pos_site_id
 _symmetry_equiv_pos_as_xyz
  1  'x, y, z'
loop_
 _atom_site_type_symbol
 _atom_site_label
 _atom_site_symmetry_multiplicity
 _atom_site_fract_x
 _atom_site_fract_y
 _atom_site_fract_z
 _atom_site_occupancy
  Li  Li1  1  0.714283  0.899175  0.457596  1
  Li  Li2  1  0.100537  0.496082  0.542404  1
  Cu  Cu3  1  0.389669  0.567941  0.434012  1
  Cu  Cu4  1  0.425151  0.827316  0.565988  1
  C  C5  1  0.044163  0.225952  0.439398  1
  C  C6  1  0.770657  0.169305  0.560602  1
  O  O7  1  0.305790  0.985994  0.438549  1
  O  O8  1  0.796527  0.211642  0.429341  1
  O  O9  1  0.033253  0.482249  0.452488  1
  O  O10  1  0.781567  0.913008  0.547512  1
  O  O11  1  0.018293  0.183615  0.570659  1
  O  O12  1  0.509031  0.409264  0.561451  1
