# generated using pymatgen
data_Ba2Sb2O5
_symmetry_space_group_name_H-M   'P 1'
_cell_length_a   6.28589006
_cell_length_b   8.28266128
_cell_length_c   26.48044400
_cell_angle_alpha   90.00000000
_cell_angle_beta   90.00000000
_cell_angle_gamma   90.00000000
_symmetry_Int_Tables_number   1
_chemical_formula_structural   Ba2Sb2O5
_chemical_formula_sum   'Ba4 Sb4 O10'
_cell_volume   1378.67514098
_cell_formula_units_Z   2
loop_
 _symmetry_equiv_pos_site_id
 _symmetry_equiv_pos_as_xyz
  1  'x, y, z'
loop_
 _atom_site_type_symbol
 _atom_site_label
 _atom_site_symmetry_multiplicity
 _atom_site_fract_x
 _atom_site_fract_y
 _atom_site_fract_z
 _atom_site_occupancy
  Ba  Ba1  1  0.250000  0.125378  0.535223  1
  Ba  Ba2  1  0.750000  0.374926  0.462175  1
  Ba  Ba3  1  0.250000  0.625074  0.537825  1
  Ba  Ba4  1  0.750000  0.874622  0.464777  1
  Sb  Sb5  1  0.250000  0.135445  0.396838  1
  Sb  Sb6  1  0.750000  0.385397  0.602178  1
  Sb  Sb7  1  0.250000  0.614603  0.397822  1
  Sb  Sb8  1  0.750000  0.864555  0.603162  1
  O  O9  1  0.019896  0.121431  0.446915  1
  O  O10  1  0.480104  0.121431  0.446915  1
  O  O11  1  0.250000  0.375131  0.388047  1
  O  O12  1  0.520291  0.372302  0.552033  1
  O  O13  1  0.979709  0.372302  0.552033  1
  O  O14  1  0.750000  0.624869  0.611953  1
  O  O15  1  0.020291  0.627698  0.447967  1
  O  O16  1  0.479709  0.627698  0.447967  1
  O  O17  1  0.519896  0.878569  0.553085  1
  O  O18  1  0.980104  0.878569  0.553085  1
