# generated using pymatgen
data_BiF3
_symmetry_space_group_name_H-M   'P 1'
_cell_length_a   4.22753289
_cell_length_b   4.22753232
_cell_length_c   22.93464867
_cell_angle_alpha   90.00000000
_cell_angle_beta   90.00000000
_cell_angle_gamma   120.00000440
_symmetry_Int_Tables_number   1
_chemical_formula_structural   BiF3
_chemical_formula_sum   'Bi1 F3'
_cell_volume   354.97407442
_cell_formula_units_Z   1
loop_
 _symmetry_equiv_pos_site_id
 _symmetry_equiv_pos_as_xyz
  1  'x, y, z'
loop_
 _atom_site_type_symbol
 _atom_site_label
 _atom_site_symmetry_multiplicity
 _atom_site_fract_x
 _atom_site_fract_y
 _atom_site_fract_z
 _atom_site_occupancy
  Bi  Bi1  1  0.666667  0.333333  0.500000  1
  F  F2  1  -0.000000  0.000000  0.500000  1
  F  F3  1  0.666667  0.333333  0.408112  1
  F  F4  1  0.666667  0.333333  0.591888  1
