# generated using pymatgen
data_CuCN2
_symmetry_space_group_name_H-M   'P 1'
_cell_length_a   2.96225356
_cell_length_b   9.40187589
_cell_length_c   21.43180300
_cell_angle_alpha   90.00000000
_cell_angle_beta   90.00000000
_cell_angle_gamma   90.00000000
_symmetry_Int_Tables_number   1
_chemical_formula_structural   CuCN2
_chemical_formula_sum   'Cu2 C2 N4'
_cell_volume   596.89158007
_cell_formula_units_Z   2
loop_
 _symmetry_equiv_pos_site_id
 _symmetry_equiv_pos_as_xyz
  1  'x, y, z'
loop_
 _atom_site_type_symbol
 _atom_site_label
 _atom_site_symmetry_multiplicity
 _atom_site_fract_x
 _atom_site_fract_y
 _atom_site_fract_z
 _atom_site_occupancy
  Cu  Cu1  1  0.500000  0.000000  0.500000  1
  Cu  Cu2  1  0.500000  0.500000  0.500000  1
  C  C3  1  0.000000  0.250000  0.469051  1
  C  C4  1  0.000000  0.750000  0.530949  1
  N  N5  1  0.000000  0.881052  0.533012  1
  N  N6  1  0.000000  0.118948  0.466988  1
  N  N7  1  0.000000  0.381052  0.466988  1
  N  N8  1  0.000000  0.618948  0.533012  1
