# generated using pymatgen
data_Lu2Te5O13
_symmetry_space_group_name_H-M   'P 1'
_cell_length_a   6.85264752
_cell_length_b   8.60613724
_cell_length_c   30.60443807
_cell_angle_alpha   89.16892362
_cell_angle_beta   89.59841014
_cell_angle_gamma   74.69246768
_symmetry_Int_Tables_number   1
_chemical_formula_structural   Lu2Te5O13
_chemical_formula_sum   'Lu4 Te10 O26'
_cell_volume   1740.66615261
_cell_formula_units_Z   2
loop_
 _symmetry_equiv_pos_site_id
 _symmetry_equiv_pos_as_xyz
  1  'x, y, z'
loop_
 _atom_site_type_symbol
 _atom_site_label
 _atom_site_symmetry_multiplicity
 _atom_site_fract_x
 _atom_site_fract_y
 _atom_site_fract_z
 _atom_site_occupancy
  Lu  Lu1  1  0.974986  0.762810  0.415967  1
  Lu  Lu2  1  0.562748  0.034800  0.563003  1
  Lu  Lu3  1  0.025014  0.237190  0.584033  1
  Lu  Lu4  1  0.437252  0.965200  0.436997  1
  Te  Te5  1  0.859388  0.148574  0.465414  1
  Te  Te6  1  0.536613  0.587257  0.397207  1
  Te  Te7  1  0.140612  0.851426  0.534586  1
  Te  Te8  1  0.713886  0.618813  0.509418  1
  Te  Te9  1  0.463387  0.412743  0.602793  1
  Te  Te10  1  0.764256  0.117038  0.676267  1
  Te  Te11  1  0.872049  0.698822  0.623012  1
  Te  Te12  1  0.286114  0.381187  0.490582  1
  Te  Te13  1  0.127951  0.301178  0.376988  1
  Te  Te14  1  0.235744  0.882962  0.323733  1
  O  O15  1  0.527573  0.826778  0.499232  1
  O  O16  1  0.695967  0.275250  0.576516  1
  O  O17  1  0.953187  0.484481  0.604659  1
  O  O18  1  0.689736  0.991505  0.632094  1
  O  O19  1  0.249035  0.003367  0.563389  1
  O  O20  1  0.003154  0.851209  0.349771  1
  O  O21  1  0.057117  0.321817  0.514657  1
  O  O22  1  0.678022  0.767109  0.578127  1
  O  O23  1  0.909524  0.232517  0.404048  1
  O  O24  1  0.876724  0.007365  0.534316  1
  O  O25  1  0.472427  0.173222  0.500768  1
  O  O26  1  0.942883  0.678183  0.485343  1
  O  O27  1  0.046813  0.515519  0.395341  1
  O  O28  1  0.996846  0.148791  0.650229  1
  O  O29  1  0.304033  0.724750  0.423484  1
  O  O30  1  0.360034  0.494492  0.541304  1
  O  O31  1  0.750965  0.996633  0.436611  1
  O  O32  1  0.337336  0.243657  0.597760  1
  O  O33  1  0.310264  0.008495  0.367906  1
  O  O34  1  0.321978  0.232891  0.421873  1
  O  O35  1  0.425575  0.679949  0.333759  1
  O  O36  1  0.090476  0.767483  0.595952  1
  O  O37  1  0.123276  0.992635  0.465684  1
  O  O38  1  0.662664  0.756343  0.402240  1
  O  O39  1  0.574425  0.320051  0.666241  1
  O  O40  1  0.639966  0.505508  0.458696  1
