# generated using pymatgen
data_LiBi(PO3)4
_symmetry_space_group_name_H-M   'P 1'
_cell_length_a   7.18032641
_cell_length_b   6.75745770
_cell_length_c   25.80906400
_cell_angle_alpha   90.00000000
_cell_angle_beta   90.00000000
_cell_angle_gamma   91.57229686
_symmetry_Int_Tables_number   1
_chemical_formula_structural   LiBi(PO3)4
_chemical_formula_sum   'Li1 Bi1 P4 O12'
_cell_volume   1251.80371027
_cell_formula_units_Z   1
loop_
 _symmetry_equiv_pos_site_id
 _symmetry_equiv_pos_as_xyz
  1  'x, y, z'
loop_
 _atom_site_type_symbol
 _atom_site_label
 _atom_site_symmetry_multiplicity
 _atom_site_fract_x
 _atom_site_fract_y
 _atom_site_fract_z
 _atom_site_occupancy
  Li  Li1  1  0.173976  0.824151  0.445860  1
  Bi  Bi2  1  0.694684  0.664032  0.482593  1
  P  P3  1  0.403548  0.384127  0.565269  1
  P  P4  1  0.540019  0.056991  0.495041  1
  P  P5  1  0.893062  0.162868  0.443704  1
  P  P6  1  0.044454  0.445264  0.518911  1
  O  O7  1  0.009479  0.226368  0.496055  1
  O  O8  1  0.120159  0.582559  0.478502  1
  O  O9  1  0.177807  0.402847  0.566163  1
  O  O10  1  0.467296  0.559942  0.531572  1
  O  O11  1  0.406893  0.192419  0.525048  1
  O  O12  1  0.431697  0.923560  0.458018  1
  O  O13  1  0.482187  0.341276  0.615662  1
  O  O14  1  0.665168  0.933312  0.530194  1
  O  O15  1  0.675995  0.208148  0.463566  1
  O  O16  1  0.859449  0.513363  0.542057  1
  O  O17  1  0.930717  0.297591  0.400346  1
  O  O18  1  0.916093  0.940186  0.441442  1
