# generated using pymatgen
data_I(NO3)2
_symmetry_space_group_name_H-M   'P 1'
_cell_length_a   4.71321564
_cell_length_b   4.71321556
_cell_length_c   24.83665100
_cell_angle_alpha   90.00000000
_cell_angle_beta   90.00000000
_cell_angle_gamma   60.00000659
_symmetry_Int_Tables_number   1
_chemical_formula_structural   I(NO3)2
_chemical_formula_sum   'I1 N2 O6'
_cell_volume   477.81338142
_cell_formula_units_Z   1
loop_
 _symmetry_equiv_pos_site_id
 _symmetry_equiv_pos_as_xyz
  1  'x, y, z'
loop_
 _atom_site_type_symbol
 _atom_site_label
 _atom_site_symmetry_multiplicity
 _atom_site_fract_x
 _atom_site_fract_y
 _atom_site_fract_z
 _atom_site_occupancy
  I  I1  1  0.000000  -0.000000  0.500000  1
  N  N2  1  0.666667  0.666667  0.576649  1
  N  N3  1  0.333333  0.333333  0.423351  1
  O  O4  1  0.401483  0.940634  0.575995  1
  O  O5  1  0.657884  0.401483  0.575995  1
  O  O6  1  0.940634  0.657884  0.575995  1
  O  O7  1  0.598517  0.059366  0.424005  1
  O  O8  1  0.342116  0.598517  0.424005  1
  O  O9  1  0.059366  0.342116  0.424005  1
