# generated using pymatgen
data_MnTeO4
_symmetry_space_group_name_H-M   'P 1'
_cell_length_a   3.13544762
_cell_length_b   5.71272274
_cell_length_c   22.18598116
_cell_angle_alpha   87.87259369
_cell_angle_beta   89.99416390
_cell_angle_gamma   90.00110869
_symmetry_Int_Tables_number   1
_chemical_formula_structural   MnTeO4
_chemical_formula_sum   'Mn1 Te1 O4'
_cell_volume   397.12012282
_cell_formula_units_Z   1
loop_
 _symmetry_equiv_pos_site_id
 _symmetry_equiv_pos_as_xyz
  1  'x, y, z'
loop_
 _atom_site_type_symbol
 _atom_site_label
 _atom_site_symmetry_multiplicity
 _atom_site_fract_x
 _atom_site_fract_y
 _atom_site_fract_z
 _atom_site_occupancy
  Mn  Mn1  1  0.500691  0.679852  0.500063  1
  Te  Te2  1  0.000520  0.179982  0.499947  1
  O  O3  1  0.000584  0.878222  0.539055  1
  O  O4  1  0.500501  0.299081  0.549450  1
  O  O5  1  0.000730  0.481709  0.461000  1
  O  O6  1  0.500545  0.060551  0.450484  1
