# generated using pymatgen
data_MoO3
_symmetry_space_group_name_H-M   'P 1'
_cell_length_a   6.09982558
_cell_length_b   6.09982618
_cell_length_c   23.48376500
_cell_angle_alpha   90.00000000
_cell_angle_beta   90.00000000
_cell_angle_gamma   120.00000219
_symmetry_Int_Tables_number   1
_chemical_formula_structural   MoO3
_chemical_formula_sum   'Mo3 O9'
_cell_volume   756.71653530
_cell_formula_units_Z   3
loop_
 _symmetry_equiv_pos_site_id
 _symmetry_equiv_pos_as_xyz
  1  'x, y, z'
loop_
 _atom_site_type_symbol
 _atom_site_label
 _atom_site_symmetry_multiplicity
 _atom_site_fract_x
 _atom_site_fract_y
 _atom_site_fract_z
 _atom_site_occupancy
  Mo  Mo1  1  0.339587  0.000000  0.499392  1
  Mo  Mo2  1  0.660413  0.660413  0.499392  1
  Mo  Mo3  1  1.000000  0.339587  0.499392  1
  O  O4  1  0.333333  0.666667  0.488732  1
  O  O5  1  0.666667  0.333333  0.488732  1
  O  O6  1  -0.000000  -0.000000  0.519783  1
  O  O7  1  0.000000  0.351249  0.573942  1
  O  O8  1  0.648751  0.648751  0.573942  1
  O  O9  1  0.351249  1.000000  0.573942  1
  O  O10  1  0.000000  0.223785  0.427583  1
  O  O11  1  0.776215  0.776215  0.427583  1
  O  O12  1  0.223785  1.000000  0.427583  1
