# generated using pymatgen
data_CeGe5
_symmetry_space_group_name_H-M   'P 1'
_cell_length_a   3.45518940
_cell_length_b   6.33142662
_cell_length_c   22.76308500
_cell_angle_alpha   90.00000000
_cell_angle_beta   90.00000000
_cell_angle_gamma   90.00000000
_symmetry_Int_Tables_number   1
_chemical_formula_structural   CeGe5
_chemical_formula_sum   'Ce1 Ge5'
_cell_volume   497.97157888
_cell_formula_units_Z   1
loop_
 _symmetry_equiv_pos_site_id
 _symmetry_equiv_pos_as_xyz
  1  'x, y, z'
loop_
 _atom_site_type_symbol
 _atom_site_label
 _atom_site_symmetry_multiplicity
 _atom_site_fract_x
 _atom_site_fract_y
 _atom_site_fract_z
 _atom_site_occupancy
  Ce  Ce1  1  -0.000000  -0.000000  0.500000  1
  Ge  Ge2  1  0.500000  0.298292  0.575220  1
  Ge  Ge3  1  0.500000  0.701708  0.575220  1
  Ge  Ge4  1  0.500000  0.298292  0.424780  1
  Ge  Ge5  1  0.500000  0.701708  0.424780  1
  Ge  Ge6  1  0.000000  0.500000  0.500000  1
