# generated using pymatgen
data_RbNaMg6O7
_symmetry_space_group_name_H-M   'P 1'
_cell_length_a   4.23013692
_cell_length_b   4.23013692
_cell_length_c   28.26191600
_cell_angle_alpha   90.00000000
_cell_angle_beta   90.00000000
_cell_angle_gamma   90.00000000
_symmetry_Int_Tables_number   1
_chemical_formula_structural   RbNaMg6O7
_chemical_formula_sum   'Rb1 Na1 Mg6 O7'
_cell_volume   505.72037432
_cell_formula_units_Z   1
loop_
 _symmetry_equiv_pos_site_id
 _symmetry_equiv_pos_as_xyz
  1  'x, y, z'
loop_
 _atom_site_type_symbol
 _atom_site_label
 _atom_site_symmetry_multiplicity
 _atom_site_fract_x
 _atom_site_fract_y
 _atom_site_fract_z
 _atom_site_occupancy
  Rb  Rb1  1  -0.000000  0.000000  0.668638  1
  Na  Na2  1  0.500000  0.500000  0.629282  1
  Mg  Mg3  1  0.500000  0.500000  0.452994  1
  Mg  Mg4  1  0.000000  0.000000  0.460077  1
  Mg  Mg5  1  -0.000000  0.500000  0.546400  1
  Mg  Mg6  1  0.000000  0.500000  0.381684  1
  Mg  Mg7  1  0.500000  0.000000  0.546400  1
  Mg  Mg8  1  0.500000  -0.000000  0.381684  1
  O  O9  1  0.500000  0.500000  0.379955  1
  O  O10  1  -0.000000  0.000000  0.531056  1
  O  O11  1  -0.000000  0.000000  0.380125  1
  O  O12  1  -0.000000  0.500000  0.613074  1
  O  O13  1  -0.000000  0.500000  0.457778  1
  O  O14  1  0.500000  0.000000  0.613074  1
  O  O15  1  0.500000  0.000000  0.457778  1
