# generated using pymatgen
data_Ba2YI7
_symmetry_space_group_name_H-M   'P 1'
_cell_length_a   9.31550738
_cell_length_b   15.00373798
_cell_length_c   24.98615600
_cell_angle_alpha   90.00000000
_cell_angle_beta   90.00000000
_cell_angle_gamma   90.82255517
_symmetry_Int_Tables_number   1
_chemical_formula_structural   Ba2YI7
_chemical_formula_sum   'Ba4 Y2 I14'
_cell_volume   3491.89098017
_cell_formula_units_Z   2
loop_
 _symmetry_equiv_pos_site_id
 _symmetry_equiv_pos_as_xyz
  1  'x, y, z'
loop_
 _atom_site_type_symbol
 _atom_site_label
 _atom_site_symmetry_multiplicity
 _atom_site_fract_x
 _atom_site_fract_y
 _atom_site_fract_z
 _atom_site_occupancy
  Ba  Ba1  1  0.693459  0.544999  0.484770  1
  Ba  Ba2  1  0.812785  0.251307  0.469849  1
  Ba  Ba3  1  0.193459  0.044999  0.515230  1
  Ba  Ba4  1  0.312785  0.751307  0.530151  1
  Y  Y5  1  0.772213  0.835946  0.530977  1
  Y  Y6  1  0.272213  0.335946  0.469023  1
  I  I7  1  0.976269  0.691966  0.488745  1
  I  I8  1  0.535014  0.381958  0.398978  1
  I  I9  1  0.731820  0.387878  0.574098  1
  I  I10  1  0.006917  0.435805  0.424574  1
  I  I11  1  0.476269  0.191966  0.511255  1
  I  I12  1  0.831658  0.012615  0.473364  1
  I  I13  1  0.035014  0.881958  0.601022  1
  I  I14  1  0.231820  0.887878  0.425902  1
  I  I15  1  0.506917  0.935805  0.575426  1
  I  I16  1  0.597405  0.760460  0.438025  1
  I  I17  1  0.331658  0.512615  0.526636  1
  I  I18  1  0.640758  0.686908  0.598365  1
  I  I19  1  0.097405  0.260460  0.561975  1
  I  I20  1  0.140758  0.186908  0.401635  1
