# generated using pymatgen
data_AgGeO3
_symmetry_space_group_name_H-M   'P 1'
_cell_length_a   3.16223314
_cell_length_b   9.27285661
_cell_length_c   26.07072600
_cell_angle_alpha   90.00000000
_cell_angle_beta   90.00000000
_cell_angle_gamma   89.97953690
_symmetry_Int_Tables_number   1
_chemical_formula_structural   AgGeO3
_chemical_formula_sum   'Ag2 Ge2 O6'
_cell_volume   764.47014121
_cell_formula_units_Z   2
loop_
 _symmetry_equiv_pos_site_id
 _symmetry_equiv_pos_as_xyz
  1  'x, y, z'
loop_
 _atom_site_type_symbol
 _atom_site_label
 _atom_site_symmetry_multiplicity
 _atom_site_fract_x
 _atom_site_fract_y
 _atom_site_fract_z
 _atom_site_occupancy
  Ag  Ag1  1  0.023602  0.013668  0.499351  1
  Ag  Ag2  1  0.017084  0.514300  0.500802  1
  Ge  Ge3  1  0.518271  0.762443  0.418477  1
  Ge  Ge4  1  0.519703  0.263384  0.581347  1
  O  O5  1  0.517065  0.604961  0.457915  1
  O  O6  1  0.522936  0.922616  0.456495  1
  O  O7  1  0.019722  0.261654  0.615833  1
  O  O8  1  0.018319  0.761198  0.383873  1
  O  O9  1  0.517427  0.425082  0.544102  1
  O  O10  1  0.523332  0.106088  0.541805  1
