# generated using pymatgen
data_IrI3
_symmetry_space_group_name_H-M   'P 1'
_cell_length_a   6.86219715
_cell_length_b   6.86219733
_cell_length_c   22.97866300
_cell_angle_alpha   90.00000000
_cell_angle_beta   90.00000000
_cell_angle_gamma   119.86207644
_symmetry_Int_Tables_number   1
_chemical_formula_structural   IrI3
_chemical_formula_sum   'Ir2 I6'
_cell_volume   938.39069287
_cell_formula_units_Z   2
loop_
 _symmetry_equiv_pos_site_id
 _symmetry_equiv_pos_as_xyz
  1  'x, y, z'
loop_
 _atom_site_type_symbol
 _atom_site_label
 _atom_site_symmetry_multiplicity
 _atom_site_fract_x
 _atom_site_fract_y
 _atom_site_fract_z
 _atom_site_occupancy
  Ir  Ir1  1  0.833154  0.166846  0.500000  1
  Ir  Ir2  1  0.166846  0.833154  0.500000  1
  I  I3  1  0.500393  0.147685  0.433988  1
  I  I4  1  0.499607  0.852315  0.566012  1
  I  I5  1  0.852315  0.499607  0.566012  1
  I  I6  1  0.147685  0.500393  0.433988  1
  I  I7  1  0.852241  0.852241  0.434012  1
  I  I8  1  0.147759  0.147759  0.565988  1
