# generated using pymatgen
data_BaH4O3
_symmetry_space_group_name_H-M   'P 1'
_cell_length_a   3.88892679
_cell_length_b   5.68510291
_cell_length_c   26.50564500
_cell_angle_alpha   90.00000000
_cell_angle_beta   90.00000000
_cell_angle_gamma   90.00000000
_symmetry_Int_Tables_number   1
_chemical_formula_structural   BaH4O3
_chemical_formula_sum   'Ba2 H8 O6'
_cell_volume   586.01195380
_cell_formula_units_Z   2
loop_
 _symmetry_equiv_pos_site_id
 _symmetry_equiv_pos_as_xyz
  1  'x, y, z'
loop_
 _atom_site_type_symbol
 _atom_site_label
 _atom_site_symmetry_multiplicity
 _atom_site_fract_x
 _atom_site_fract_y
 _atom_site_fract_z
 _atom_site_occupancy
  Ba  Ba1  1  0.955427  0.814479  0.447240  1
  Ba  Ba2  1  0.955068  0.314479  0.552760  1
  H  H3  1  0.159154  0.871900  0.597978  1
  H  H4  1  0.749776  0.872486  0.598004  1
  H  H5  1  0.751341  0.371900  0.402022  1
  H  H6  1  0.160719  0.372486  0.401996  1
  H  H7  1  0.456883  0.599511  0.351145  1
  H  H8  1  0.453612  0.099511  0.648855  1
  H  H9  1  0.455064  0.417864  0.478080  1
  H  H10  1  0.455431  0.917864  0.521920  1
  O  O11  1  0.954233  0.781797  0.584558  1
  O  O12  1  0.956261  0.281797  0.415442  1
  O  O13  1  0.455667  0.586078  0.387790  1
  O  O14  1  0.454828  0.086078  0.612210  1
  O  O15  1  0.454876  0.559252  0.499289  1
  O  O16  1  0.455619  0.059252  0.500711  1
