# generated using pymatgen
data_Hg2TeBr3
_symmetry_space_group_name_H-M   'P 1'
_cell_length_a   9.95652552
_cell_length_b   12.84383601
_cell_length_c   24.58911800
_cell_angle_alpha   90.00000000
_cell_angle_beta   90.00000000
_cell_angle_gamma   90.00000000
_symmetry_Int_Tables_number   1
_chemical_formula_structural   Hg2TeBr3
_chemical_formula_sum   'Hg8 Te4 Br12'
_cell_volume   3144.45594285
_cell_formula_units_Z   4
loop_
 _symmetry_equiv_pos_site_id
 _symmetry_equiv_pos_as_xyz
  1  'x, y, z'
loop_
 _atom_site_type_symbol
 _atom_site_label
 _atom_site_symmetry_multiplicity
 _atom_site_fract_x
 _atom_site_fract_y
 _atom_site_fract_z
 _atom_site_occupancy
  Hg  Hg1  1  0.491272  0.023216  0.472050  1
  Hg  Hg2  1  0.193253  0.250449  0.474576  1
  Hg  Hg3  1  0.306747  0.750449  0.474576  1
  Hg  Hg4  1  0.991272  0.991113  0.527950  1
  Hg  Hg5  1  0.806747  0.263880  0.525424  1
  Hg  Hg6  1  0.693253  0.763880  0.525424  1
  Hg  Hg7  1  0.508728  0.491113  0.527950  1
  Hg  Hg8  1  0.008728  0.523216  0.472050  1
  Te  Te9  1  0.086279  0.691061  0.532626  1
  Te  Te10  1  0.413721  0.191061  0.532626  1
  Te  Te11  1  0.913721  0.823268  0.467374  1
  Te  Te12  1  0.586279  0.323268  0.467374  1
  Br  Br13  1  0.522974  0.654147  0.439448  1
  Br  Br14  1  0.185226  0.043106  0.591223  1
  Br  Br15  1  0.232796  0.431256  0.419939  1
  Br  Br16  1  0.977026  0.154147  0.439448  1
  Br  Br17  1  0.685226  0.971223  0.408777  1
  Br  Br18  1  0.267204  0.931256  0.419939  1
  Br  Br19  1  0.314774  0.543106  0.591223  1
  Br  Br20  1  0.814774  0.471223  0.408777  1
  Br  Br21  1  0.767204  0.083073  0.580061  1
  Br  Br22  1  0.022974  0.360182  0.560552  1
  Br  Br23  1  0.477026  0.860182  0.560552  1
  Br  Br24  1  0.732796  0.583073  0.580061  1
