# generated using pymatgen
data_Zn2Sn3O8
_symmetry_space_group_name_H-M   'P 1'
_cell_length_a   5.47614320
_cell_length_b   6.35060809
_cell_length_c   24.02135500
_cell_angle_alpha   90.00000000
_cell_angle_beta   90.00000000
_cell_angle_gamma   90.00000000
_symmetry_Int_Tables_number   1
_chemical_formula_structural   Zn2Sn3O8
_chemical_formula_sum   'Zn2 Sn3 O8'
_cell_volume   835.38680279
_cell_formula_units_Z   1
loop_
 _symmetry_equiv_pos_site_id
 _symmetry_equiv_pos_as_xyz
  1  'x, y, z'
loop_
 _atom_site_type_symbol
 _atom_site_label
 _atom_site_symmetry_multiplicity
 _atom_site_fract_x
 _atom_site_fract_y
 _atom_site_fract_z
 _atom_site_occupancy
  Zn  Zn1  1  0.348430  0.500000  0.558512  1
  Zn  Zn2  1  0.348217  0.500000  0.441488  1
  Sn  Sn3  1  0.348324  0.000000  0.500000  1
  Sn  Sn4  1  0.848324  0.254263  0.500000  1
  Sn  Sn5  1  0.848324  0.745738  0.500000  1
  O  O6  1  0.699785  0.500000  0.452571  1
  O  O7  1  0.996863  0.500000  0.547429  1
  O  O8  1  0.679285  0.000000  0.457525  1
  O  O9  1  0.017363  0.000000  0.542475  1
  O  O10  1  0.521655  0.759155  0.546114  1
  O  O11  1  0.521655  0.240845  0.546114  1
  O  O12  1  0.174993  0.759155  0.453886  1
  O  O13  1  0.174993  0.240845  0.453886  1
