# generated using pymatgen
data_RbAuS
_symmetry_space_group_name_H-M   'P 1'
_cell_length_a   6.42810305
_cell_length_b   7.92005954
_cell_length_c   20.00000000
_cell_angle_alpha   90.00000000
_cell_angle_beta   90.00000000
_cell_angle_gamma   90.00000000
_symmetry_Int_Tables_number   1
_chemical_formula_structural   RbAuS
_chemical_formula_sum   'Rb2 Au2 S2'
_cell_volume   1018.21917771
_cell_formula_units_Z   2
loop_
 _symmetry_equiv_pos_site_id
 _symmetry_equiv_pos_as_xyz
  1  'x, y, z'
loop_
 _atom_site_type_symbol
 _atom_site_label
 _atom_site_symmetry_multiplicity
 _atom_site_fract_x
 _atom_site_fract_y
 _atom_site_fract_z
 _atom_site_occupancy
  Rb  Rb1  1  0.250000  0.635570  0.500000  1
  Rb  Rb2  1  0.750000  0.364430  0.500000  1
  Au  Au3  1  -0.000000  -0.000000  0.500000  1
  Au  Au4  1  0.500000  -0.000000  0.500000  1
  S  S5  1  0.250000  0.216952  0.500000  1
  S  S6  1  0.750000  0.783048  0.500000  1
