# generated using pymatgen
data_ScSi3Ni2
_symmetry_space_group_name_H-M   'P 1'
_cell_length_a   3.64894959
_cell_length_b   3.64894959
_cell_length_c   29.53417300
_cell_angle_alpha   90.00000000
_cell_angle_beta   90.00000000
_cell_angle_gamma   90.00000000
_symmetry_Int_Tables_number   1
_chemical_formula_structural   ScSi3Ni2
_chemical_formula_sum   'Sc2 Si6 Ni4'
_cell_volume   393.24258455
_cell_formula_units_Z   2
loop_
 _symmetry_equiv_pos_site_id
 _symmetry_equiv_pos_as_xyz
  1  'x, y, z'
loop_
 _atom_site_type_symbol
 _atom_site_label
 _atom_site_symmetry_multiplicity
 _atom_site_fract_x
 _atom_site_fract_y
 _atom_site_fract_z
 _atom_site_occupancy
  Sc  Sc1  1  0.500000  0.000000  0.414632  1
  Sc  Sc2  1  0.000000  0.500000  0.585368  1
  Si  Si3  1  0.500000  0.500000  0.326173  1
  Si  Si4  1  0.000000  -0.000000  0.326173  1
  Si  Si5  1  0.000000  0.000000  0.673827  1
  Si  Si6  1  -0.000000  0.500000  0.452328  1
  Si  Si7  1  0.500000  -0.000000  0.547672  1
  Si  Si8  1  0.500000  0.500000  0.673827  1
  Ni  Ni9  1  0.500000  0.500000  0.500000  1
  Ni  Ni10  1  -0.000000  0.000000  0.500000  1
  Ni  Ni11  1  0.000000  0.500000  0.376983  1
  Ni  Ni12  1  0.500000  0.000000  0.623017  1
