# generated using pymatgen
data_AgSb2F12
_symmetry_space_group_name_H-M   'P 1'
_cell_length_a   5.08876515
_cell_length_b   5.46925532
_cell_length_c   27.63243700
_cell_angle_alpha   90.00000000
_cell_angle_beta   90.00000000
_cell_angle_gamma   114.76460512
_symmetry_Int_Tables_number   1
_chemical_formula_structural   AgSb2F12
_chemical_formula_sum   'Ag1 Sb2 F12'
_cell_volume   698.33380364
_cell_formula_units_Z   1
loop_
 _symmetry_equiv_pos_site_id
 _symmetry_equiv_pos_as_xyz
  1  'x, y, z'
loop_
 _atom_site_type_symbol
 _atom_site_label
 _atom_site_symmetry_multiplicity
 _atom_site_fract_x
 _atom_site_fract_y
 _atom_site_fract_z
 _atom_site_occupancy
  Ag  Ag1  1  0.805656  0.905418  0.500000  1
  Sb  Sb2  1  0.082012  0.513075  0.583990  1
  Sb  Sb3  1  0.529301  0.297762  0.416010  1
  F  F4  1  0.488643  0.575567  0.458920  1
  F  F5  1  0.122669  0.235270  0.541080  1
  F  F6  1  0.932260  0.521551  0.415352  1
  F  F7  1  0.048744  0.808835  0.613459  1
  F  F8  1  0.562569  0.002002  0.386541  1
  F  F9  1  0.484680  0.720995  0.569195  1
  F  F10  1  0.126633  0.089842  0.430805  1
  F  F11  1  0.019640  0.655965  0.519636  1
  F  F12  1  0.591673  0.154872  0.480364  1
  F  F13  1  0.168702  0.361305  0.639215  1
  F  F14  1  0.442611  0.449532  0.360785  1
  F  F15  1  0.679053  0.289286  0.584648  1
