# generated using pymatgen
data_V2Pb3O8
_symmetry_space_group_name_H-M   'P 1'
_cell_length_a   5.71065513
_cell_length_b   5.71065500
_cell_length_c   25.14671000
_cell_angle_alpha   90.00000000
_cell_angle_beta   90.00000000
_cell_angle_gamma   113.22919560
_symmetry_Int_Tables_number   1
_chemical_formula_structural   V2Pb3O8
_chemical_formula_sum   'V2 Pb3 O8'
_cell_volume   753.59425556
_cell_formula_units_Z   1
loop_
 _symmetry_equiv_pos_site_id
 _symmetry_equiv_pos_as_xyz
  1  'x, y, z'
loop_
 _atom_site_type_symbol
 _atom_site_label
 _atom_site_symmetry_multiplicity
 _atom_site_fract_x
 _atom_site_fract_y
 _atom_site_fract_z
 _atom_site_occupancy
  V  V1  1  0.665913  0.336421  0.552695  1
  V  V2  1  0.336421  0.665913  0.447305  1
  Pb  Pb3  1  0.423766  0.707351  0.598898  1
  Pb  Pb4  1  0.707351  0.423766  0.401102  1
  Pb  Pb5  1  0.004409  0.004409  0.500000  1
  O  O6  1  0.772057  0.341727  0.486455  1
  O  O7  1  0.341727  0.772057  0.513545  1
  O  O8  1  0.751533  0.118703  0.586565  1
  O  O9  1  0.118703  0.751533  0.413435  1
  O  O10  1  0.341044  0.265700  0.560093  1
  O  O11  1  0.642332  0.805566  0.420344  1
  O  O12  1  0.805566  0.642332  0.579656  1
  O  O13  1  0.265700  0.341044  0.439907  1
