# generated using pymatgen
data_Y2Te5O13
_symmetry_space_group_name_H-M   'P 1'
_cell_length_a   7.01955027
_cell_length_b   8.62060378
_cell_length_c   31.02294200
_cell_angle_alpha   90.00000000
_cell_angle_beta   90.00000000
_cell_angle_gamma   75.31030366
_symmetry_Int_Tables_number   1
_chemical_formula_structural   Y2Te5O13
_chemical_formula_sum   'Y4 Te10 O26'
_cell_volume   1815.92181274
_cell_formula_units_Z   2
loop_
 _symmetry_equiv_pos_site_id
 _symmetry_equiv_pos_as_xyz
  1  'x, y, z'
loop_
 _atom_site_type_symbol
 _atom_site_label
 _atom_site_symmetry_multiplicity
 _atom_site_fract_x
 _atom_site_fract_y
 _atom_site_fract_z
 _atom_site_occupancy
  Y  Y1  1  0.019669  0.725956  0.583803  1
  Y  Y2  1  0.980331  0.274044  0.416197  1
  Y  Y3  1  0.564748  0.527609  0.562154  1
  Y  Y4  1  0.435252  0.472391  0.437846  1
  Te  Te5  1  0.245164  0.383665  0.323350  1
  Te  Te6  1  0.285440  0.881823  0.491569  1
  Te  Te7  1  0.875575  0.193403  0.622861  1
  Te  Te8  1  0.458805  0.908484  0.603486  1
  Te  Te9  1  0.124425  0.806597  0.377139  1
  Te  Te10  1  0.132925  0.344741  0.536062  1
  Te  Te11  1  0.541195  0.091516  0.396514  1
  Te  Te12  1  0.867075  0.655259  0.463938  1
  Te  Te13  1  0.714560  0.118177  0.508431  1
  Te  Te14  1  0.754836  0.616335  0.676650  1
  O  O15  1  0.428412  0.182739  0.334588  1
  O  O16  1  0.334355  0.739821  0.597891  1
  O  O17  1  0.015090  0.355669  0.348179  1
  O  O18  1  0.984910  0.644331  0.651821  1
  O  O19  1  0.313357  0.745234  0.421399  1
  O  O20  1  0.112644  0.490880  0.462839  1
  O  O21  1  0.746269  0.509641  0.436188  1
  O  O22  1  0.087508  0.264084  0.595475  1
  O  O23  1  0.642916  0.007951  0.457346  1
  O  O24  1  0.253731  0.490359  0.563812  1
  O  O25  1  0.314020  0.223954  0.422945  1
  O  O26  1  0.686643  0.254766  0.578601  1
  O  O27  1  0.464255  0.674275  0.499596  1
  O  O28  1  0.535745  0.325725  0.500404  1
  O  O29  1  0.665645  0.260179  0.402109  1
  O  O30  1  0.687635  0.485363  0.633134  1
  O  O31  1  0.912492  0.735916  0.404525  1
  O  O32  1  0.887356  0.509120  0.537161  1
  O  O33  1  0.041496  0.020360  0.394234  1
  O  O34  1  0.312365  0.514637  0.366866  1
  O  O35  1  0.061505  0.818680  0.513534  1
  O  O36  1  0.938495  0.181320  0.486466  1
  O  O37  1  0.685980  0.776046  0.577055  1
  O  O38  1  0.571588  0.817261  0.665412  1
  O  O39  1  0.958504  0.979640  0.605766  1
  O  O40  1  0.357084  0.992049  0.542654  1
