# generated using pymatgen
data_Al3Ir
_symmetry_space_group_name_H-M   'P 1'
_cell_length_a   4.12734834
_cell_length_b   4.12734802
_cell_length_c   25.13092800
_cell_angle_alpha   90.00000000
_cell_angle_beta   90.00000000
_cell_angle_gamma   120.00000259
_symmetry_Int_Tables_number   1
_chemical_formula_structural   Al3Ir
_chemical_formula_sum   'Al3 Ir1'
_cell_volume   370.75017130
_cell_formula_units_Z   1
loop_
 _symmetry_equiv_pos_site_id
 _symmetry_equiv_pos_as_xyz
  1  'x, y, z'
loop_
 _atom_site_type_symbol
 _atom_site_label
 _atom_site_symmetry_multiplicity
 _atom_site_fract_x
 _atom_site_fract_y
 _atom_site_fract_z
 _atom_site_occupancy
  Al  Al1  1  0.666667  0.333333  0.500000  1
  Al  Al2  1  -0.000000  0.000000  0.404772  1
  Al  Al3  1  -0.000000  0.000000  0.595228  1
  Ir  Ir4  1  0.000000  -0.000000  0.500000  1
