# generated using pymatgen
data_BaH9IO5
_symmetry_space_group_name_H-M   'P 1'
_cell_length_a   6.29241341
_cell_length_b   7.96491673
_cell_length_c   28.18374700
_cell_angle_alpha   90.00000000
_cell_angle_beta   90.00000000
_cell_angle_gamma   72.69830663
_symmetry_Int_Tables_number   1
_chemical_formula_structural   BaH9IO5
_chemical_formula_sum   'Ba2 H18 I2 O10'
_cell_volume   1348.61442375
_cell_formula_units_Z   2
loop_
 _symmetry_equiv_pos_site_id
 _symmetry_equiv_pos_as_xyz
  1  'x, y, z'
loop_
 _atom_site_type_symbol
 _atom_site_label
 _atom_site_symmetry_multiplicity
 _atom_site_fract_x
 _atom_site_fract_y
 _atom_site_fract_z
 _atom_site_occupancy
  Ba  Ba1  1  0.670710  0.718362  0.495495  1
  Ba  Ba2  1  0.329290  0.281638  0.504505  1
  H  H3  1  0.924866  0.456710  0.419888  1
  H  H4  1  0.859203  0.309228  0.449074  1
  H  H5  1  0.801229  0.320514  0.546966  1
  H  H6  1  0.946069  0.828328  0.417794  1
  H  H7  1  0.821271  0.052239  0.550151  1
  H  H8  1  0.819624  0.042047  0.448865  1
  H  H9  1  0.594357  0.416765  0.579681  1
  H  H10  1  0.663392  0.174169  0.410934  1
  H  H11  1  0.615494  0.039075  0.581229  1
  H  H12  1  0.384506  0.960925  0.418771  1
  H  H13  1  0.336608  0.825831  0.589066  1
  H  H14  1  0.405643  0.583235  0.420319  1
  H  H15  1  0.180376  0.957953  0.551135  1
  H  H16  1  0.178729  0.947761  0.449849  1
  H  H17  1  0.053931  0.171672  0.582206  1
  H  H18  1  0.198771  0.679486  0.453034  1
  H  H19  1  0.140797  0.690772  0.550926  1
  H  H20  1  0.075134  0.543290  0.580112  1
  I  I21  1  0.658091  0.705142  0.366580  1
  I  I22  1  0.341909  0.294858  0.633420  1
  O  O23  1  0.942113  0.399249  0.451402  1
  O  O24  1  0.980590  0.858265  0.450305  1
  O  O25  1  0.660601  0.424839  0.548095  1
  O  O26  1  0.705710  0.168271  0.444444  1
  O  O27  1  0.684789  0.006595  0.549740  1
  O  O28  1  0.315211  0.993405  0.450259  1
  O  O29  1  0.294290  0.831729  0.555556  1
  O  O30  1  0.339399  0.575161  0.451905  1
  O  O31  1  0.019410  0.141735  0.549695  1
  O  O32  1  0.057887  0.600751  0.548598  1
