# generated using pymatgen
data_SbAsO4
_symmetry_space_group_name_H-M   'P 1'
_cell_length_a   4.80533176
_cell_length_b   7.07743945
_cell_length_c   23.39026600
_cell_angle_alpha   90.00000000
_cell_angle_beta   90.00000000
_cell_angle_gamma   90.00000000
_symmetry_Int_Tables_number   1
_chemical_formula_structural   SbAsO4
_chemical_formula_sum   'Sb2 As2 O8'
_cell_volume   795.48995497
_cell_formula_units_Z   2
loop_
 _symmetry_equiv_pos_site_id
 _symmetry_equiv_pos_as_xyz
  1  'x, y, z'
loop_
 _atom_site_type_symbol
 _atom_site_label
 _atom_site_symmetry_multiplicity
 _atom_site_fract_x
 _atom_site_fract_y
 _atom_site_fract_z
 _atom_site_occupancy
  Sb  Sb1  1  0.483621  0.750000  0.570832  1
  Sb  Sb2  1  0.023333  0.250000  0.429168  1
  As  As3  1  0.959053  0.750000  0.471250  1
  As  As4  1  0.547900  0.250000  0.528750  1
  O  O5  1  0.037750  0.555030  0.432449  1
  O  O6  1  0.469204  0.055030  0.567551  1
  O  O7  1  0.469204  0.444970  0.567551  1
  O  O8  1  0.037750  0.944970  0.432449  1
  O  O9  1  0.084166  0.750000  0.542050  1
  O  O10  1  0.422788  0.250000  0.457950  1
  O  O11  1  0.603270  0.750000  0.487792  1
  O  O12  1  0.903683  0.250000  0.512208  1
