# generated using pymatgen
data_Cd3As2
_symmetry_space_group_name_H-M   'P 1'
_cell_length_a   9.29427077
_cell_length_b   9.29427077
_cell_length_c   29.11835200
_cell_angle_alpha   90.00000000
_cell_angle_beta   90.00000000
_cell_angle_gamma   90.00000000
_symmetry_Int_Tables_number   1
_chemical_formula_structural   Cd3As2
_chemical_formula_sum   'Cd12 As8'
_cell_volume   2515.34426158
_cell_formula_units_Z   4
loop_
 _symmetry_equiv_pos_site_id
 _symmetry_equiv_pos_as_xyz
  1  'x, y, z'
loop_
 _atom_site_type_symbol
 _atom_site_label
 _atom_site_symmetry_multiplicity
 _atom_site_fract_x
 _atom_site_fract_y
 _atom_site_fract_z
 _atom_site_occupancy
  Cd  Cd1  1  0.251060  0.500000  0.637770  1
  Cd  Cd2  1  0.748940  0.500000  0.637770  1
  Cd  Cd3  1  0.500000  0.251060  0.362230  1
  Cd  Cd4  1  0.500000  0.748940  0.362230  1
  Cd  Cd5  1  0.704184  -0.000000  0.459171  1
  Cd  Cd6  1  0.295816  -0.000000  0.459171  1
  Cd  Cd7  1  -0.000000  0.704184  0.540829  1
  Cd  Cd8  1  -0.000000  0.295816  0.540829  1
  Cd  Cd9  1  0.500000  0.708337  0.540134  1
  Cd  Cd10  1  0.500000  0.291663  0.540134  1
  Cd  Cd11  1  0.708337  0.500000  0.459866  1
  Cd  Cd12  1  0.291663  0.500000  0.459866  1
  As  As13  1  0.247881  0.752119  0.500000  1
  As  As14  1  0.752119  0.247881  0.500000  1
  As  As15  1  0.752119  0.752119  0.500000  1
  As  As16  1  0.247881  0.247881  0.500000  1
  As  As17  1  0.500000  -0.000000  0.393609  1
  As  As18  1  -0.000000  0.500000  0.606391  1
  As  As19  1  0.500000  0.500000  0.605146  1
  As  As20  1  0.500000  0.500000  0.394854  1
