# generated using pymatgen
data_Zn(GaS2)2
_symmetry_space_group_name_H-M   'P 1'
_cell_length_a   3.72342424
_cell_length_b   3.72342395
_cell_length_c   29.10902800
_cell_angle_alpha   90.00000000
_cell_angle_beta   90.00000000
_cell_angle_gamma   59.99999745
_symmetry_Int_Tables_number   1
_chemical_formula_structural   Zn(GaS2)2
_chemical_formula_sum   'Zn1 Ga2 S4'
_cell_volume   349.49690523
_cell_formula_units_Z   1
loop_
 _symmetry_equiv_pos_site_id
 _symmetry_equiv_pos_as_xyz
  1  'x, y, z'
loop_
 _atom_site_type_symbol
 _atom_site_label
 _atom_site_symmetry_multiplicity
 _atom_site_fract_x
 _atom_site_fract_y
 _atom_site_fract_z
 _atom_site_occupancy
  Zn  Zn1  1  0.666667  0.666667  0.367383  1
  Ga  Ga2  1  -0.000000  -0.000000  0.497169  1
  Ga  Ga3  1  0.333333  0.333333  0.624801  1
  S  S4  1  0.000000  -0.000000  0.345625  1
  S  S5  1  0.000000  -0.000000  0.658786  1
  S  S6  1  0.666667  0.666667  0.458083  1
  S  S7  1  0.333333  0.333333  0.548152  1
