# generated using pymatgen
data_KSb2F7
_symmetry_space_group_name_H-M   'P 1'
_cell_length_a   7.51356824
_cell_length_b   8.26666561
_cell_length_c   28.43846700
_cell_angle_alpha   89.94391481
_cell_angle_beta   90.00000000
_cell_angle_gamma   90.00000000
_symmetry_Int_Tables_number   1
_chemical_formula_structural   KSb2F7
_chemical_formula_sum   'K4 Sb8 F28'
_cell_volume   1766.37365762
_cell_formula_units_Z   4
loop_
 _symmetry_equiv_pos_site_id
 _symmetry_equiv_pos_as_xyz
  1  'x, y, z'
loop_
 _atom_site_type_symbol
 _atom_site_label
 _atom_site_symmetry_multiplicity
 _atom_site_fract_x
 _atom_site_fract_y
 _atom_site_fract_z
 _atom_site_occupancy
  K  K1  1  0.334021  0.185451  0.525757  1
  K  K2  1  0.834021  0.297486  0.474243  1
  K  K3  1  0.665979  0.797486  0.474243  1
  K  K4  1  0.165979  0.685451  0.525757  1
  Sb  Sb5  1  0.693686  0.567583  0.591761  1
  Sb  Sb6  1  0.193686  0.915355  0.408239  1
  Sb  Sb7  1  0.306314  0.415355  0.408239  1
  Sb  Sb8  1  0.806314  0.067583  0.591761  1
  Sb  Sb9  1  0.313946  0.927748  0.648686  1
  Sb  Sb10  1  0.813946  0.555190  0.351314  1
  Sb  Sb11  1  0.686054  0.055190  0.351314  1
  Sb  Sb12  1  0.186054  0.427748  0.648686  1
  F  F13  1  0.438192  0.537587  0.644056  1
  F  F14  1  0.938192  0.945351  0.355944  1
  F  F15  1  0.561808  0.445351  0.355944  1
  F  F16  1  0.061808  0.037587  0.644056  1
  F  F17  1  0.110937  0.658407  0.640942  1
  F  F18  1  0.610937  0.824531  0.359058  1
  F  F19  1  0.889063  0.324531  0.359058  1
  F  F20  1  0.389063  0.158407  0.640942  1
  F  F21  1  0.213626  0.414514  0.580737  1
  F  F22  1  0.713626  0.068424  0.419263  1
  F  F23  1  0.786374  0.568424  0.419263  1
  F  F24  1  0.286374  0.914514  0.580737  1
  F  F25  1  0.881215  0.844383  0.573328  1
  F  F26  1  0.381215  0.638556  0.426672  1
  F  F27  1  0.118785  0.138555  0.426672  1
  F  F28  1  0.618785  0.344382  0.573328  1
  F  F29  1  0.581591  0.883746  0.631237  1
  F  F30  1  0.081591  0.599191  0.368763  1
  F  F31  1  0.418409  0.099191  0.368763  1
  F  F32  1  0.918409  0.383746  0.631237  1
  F  F33  1  0.654729  0.048632  0.533262  1
  F  F34  1  0.154729  0.434306  0.466738  1
  F  F35  1  0.345271  0.934306  0.466738  1
  F  F36  1  0.845271  0.548632  0.533262  1
  F  F37  1  0.989814  0.145724  0.546468  1
  F  F38  1  0.489814  0.337213  0.453532  1
  F  F39  1  0.010186  0.837213  0.453532  1
  F  F40  1  0.510186  0.645724  0.546468  1
