# generated using pymatgen
data_TiAgSe2
_symmetry_space_group_name_H-M   'P 1'
_cell_length_a   3.44145640
_cell_length_b   3.44145670
_cell_length_c   25.58370300
_cell_angle_alpha   90.00000000
_cell_angle_beta   90.00000000
_cell_angle_gamma   59.99999531
_symmetry_Int_Tables_number   1
_chemical_formula_structural   TiAgSe2
_chemical_formula_sum   'Ti1 Ag1 Se2'
_cell_volume   262.40892240
_cell_formula_units_Z   1
loop_
 _symmetry_equiv_pos_site_id
 _symmetry_equiv_pos_as_xyz
  1  'x, y, z'
loop_
 _atom_site_type_symbol
 _atom_site_label
 _atom_site_symmetry_multiplicity
 _atom_site_fract_x
 _atom_site_fract_y
 _atom_site_fract_z
 _atom_site_occupancy
  Ti  Ti1  1  0.000000  0.000000  0.541885  1
  Ag  Ag2  1  0.666667  0.666667  0.374145  1
  Se  Se3  1  0.666667  0.666667  0.480230  1
  Se  Se4  1  0.333333  0.333333  0.603739  1
