# generated using pymatgen
data_Pb(ClO2)2
_symmetry_space_group_name_H-M   'P 1'
_cell_length_a   6.02023924
_cell_length_b   6.02392639
_cell_length_c   24.51998900
_cell_angle_alpha   90.00000000
_cell_angle_beta   90.00000000
_cell_angle_gamma   90.00000000
_symmetry_Int_Tables_number   1
_chemical_formula_structural   Pb(ClO2)2
_chemical_formula_sum   'Pb2 Cl4 O8'
_cell_volume   889.22912242
_cell_formula_units_Z   2
loop_
 _symmetry_equiv_pos_site_id
 _symmetry_equiv_pos_as_xyz
  1  'x, y, z'
loop_
 _atom_site_type_symbol
 _atom_site_label
 _atom_site_symmetry_multiplicity
 _atom_site_fract_x
 _atom_site_fract_y
 _atom_site_fract_z
 _atom_site_occupancy
  Pb  Pb1  1  0.500000  0.500000  0.500000  1
  Pb  Pb2  1  0.000000  0.000000  0.500000  1
  Cl  Cl3  1  0.500000  0.000000  0.591814  1
  Cl  Cl4  1  0.000000  0.500000  0.591814  1
  Cl  Cl5  1  0.000000  0.500000  0.408186  1
  Cl  Cl6  1  0.500000  -0.000000  0.408186  1
  O  O7  1  0.346626  0.845822  0.444650  1
  O  O8  1  0.653374  0.154178  0.444650  1
  O  O9  1  0.153374  0.345822  0.444650  1
  O  O10  1  0.153374  0.654178  0.555350  1
  O  O11  1  0.846626  0.345822  0.555350  1
  O  O12  1  0.653374  0.845822  0.555350  1
  O  O13  1  0.346626  0.154178  0.555350  1
  O  O14  1  0.846626  0.654178  0.444650  1
