# generated using pymatgen
data_TiMn3O8
_symmetry_space_group_name_H-M   'P 1'
_cell_length_a   5.87550444
_cell_length_b   5.87550759
_cell_length_c   21.92291800
_cell_angle_alpha   90.00000000
_cell_angle_beta   90.00000000
_cell_angle_gamma   60.00001986
_symmetry_Int_Tables_number   1
_chemical_formula_structural   TiMn3O8
_chemical_formula_sum   'Ti1 Mn3 O8'
_cell_volume   655.41990814
_cell_formula_units_Z   1
loop_
 _symmetry_equiv_pos_site_id
 _symmetry_equiv_pos_as_xyz
  1  'x, y, z'
loop_
 _atom_site_type_symbol
 _atom_site_label
 _atom_site_symmetry_multiplicity
 _atom_site_fract_x
 _atom_site_fract_y
 _atom_site_fract_z
 _atom_site_occupancy
  Ti  Ti1  1  0.500001  0.500000  0.500001  1
  Mn  Mn2  1  0.499999  0.000000  0.500000  1
  Mn  Mn3  1  0.999999  0.499999  0.500000  1
  Mn  Mn4  1  1.000000  0.000000  0.499999  1
  O  O5  1  0.833333  0.833334  0.543657  1
  O  O6  1  0.839139  0.330429  0.543839  1
  O  O7  1  0.330429  0.839140  0.543839  1
  O  O8  1  0.166667  0.166665  0.456341  1
  O  O9  1  0.330432  0.330430  0.543838  1
  O  O10  1  0.160861  0.669571  0.456162  1
  O  O11  1  0.669571  0.160861  0.456162  1
  O  O12  1  0.669568  0.669570  0.456162  1
