# generated using pymatgen
data_CuCClO
_symmetry_space_group_name_H-M   'P 1'
_cell_length_a   3.64414501
_cell_length_b   5.02245246
_cell_length_c   27.29079300
_cell_angle_alpha   90.00000000
_cell_angle_beta   90.00000000
_cell_angle_gamma   90.00000000
_symmetry_Int_Tables_number   1
_chemical_formula_structural   CuCClO
_chemical_formula_sum   'Cu2 C2 Cl2 O2'
_cell_volume   499.49096888
_cell_formula_units_Z   2
loop_
 _symmetry_equiv_pos_site_id
 _symmetry_equiv_pos_as_xyz
  1  'x, y, z'
loop_
 _atom_site_type_symbol
 _atom_site_label
 _atom_site_symmetry_multiplicity
 _atom_site_fract_x
 _atom_site_fract_y
 _atom_site_fract_z
 _atom_site_occupancy
  Cu  Cu1  1  0.500000  0.504882  0.543319  1
  Cu  Cu2  1  0.000000  0.004882  0.456681  1
  C  C3  1  -0.000000  0.208071  0.401479  1
  C  C4  1  0.500000  0.708071  0.598521  1
  Cl  Cl5  1  -0.000000  0.209302  0.534357  1
  Cl  Cl6  1  0.500000  0.709302  0.465643  1
  O  O7  1  -0.000000  0.333144  0.366288  1
  O  O8  1  0.500000  0.833144  0.633712  1
