# generated using pymatgen
data_Mn3CuO8
_symmetry_space_group_name_H-M   'P 1'
_cell_length_a   5.82454985
_cell_length_b   5.82465008
_cell_length_c   21.93319100
_cell_angle_alpha   90.00000000
_cell_angle_beta   90.00000000
_cell_angle_gamma   119.97276769
_symmetry_Int_Tables_number   1
_chemical_formula_structural   Mn3CuO8
_chemical_formula_sum   'Mn3 Cu1 O8'
_cell_volume   644.59030411
_cell_formula_units_Z   1
loop_
 _symmetry_equiv_pos_site_id
 _symmetry_equiv_pos_as_xyz
  1  'x, y, z'
loop_
 _atom_site_type_symbol
 _atom_site_label
 _atom_site_symmetry_multiplicity
 _atom_site_fract_x
 _atom_site_fract_y
 _atom_site_fract_z
 _atom_site_occupancy
  Mn  Mn1  1  0.000000  0.500000  0.500000  1
  Mn  Mn2  1  0.500000  -0.000000  0.500000  1
  Mn  Mn3  1  0.000000  -0.000000  0.500000  1
  Cu  Cu4  1  0.500000  0.500000  0.500000  1
  O  O5  1  0.166771  0.833129  0.544016  1
  O  O6  1  0.669794  0.839458  0.544022  1
  O  O7  1  0.161236  0.330511  0.543964  1
  O  O8  1  0.833229  0.166871  0.455984  1
  O  O9  1  0.667919  0.332004  0.543739  1
  O  O10  1  0.330206  0.160542  0.455978  1
  O  O11  1  0.838764  0.669489  0.456036  1
  O  O12  1  0.332081  0.667996  0.456261  1
