# generated using pymatgen
data_Tl2Ni(CN)4
_symmetry_space_group_name_H-M   'P 1'
_cell_length_a   6.98790272
_cell_length_b   9.55556400
_cell_length_c   24.74213500
_cell_angle_alpha   90.00000000
_cell_angle_beta   90.00000000
_cell_angle_gamma   90.00000000
_symmetry_Int_Tables_number   1
_chemical_formula_structural   Tl2Ni(CN)4
_chemical_formula_sum   'Tl4 Ni2 C8 N8'
_cell_volume   1652.11528134
_cell_formula_units_Z   2
loop_
 _symmetry_equiv_pos_site_id
 _symmetry_equiv_pos_as_xyz
  1  'x, y, z'
loop_
 _atom_site_type_symbol
 _atom_site_label
 _atom_site_symmetry_multiplicity
 _atom_site_fract_x
 _atom_site_fract_y
 _atom_site_fract_z
 _atom_site_occupancy
  Tl  Tl1  1  0.369982  0.495599  0.573824  1
  Tl  Tl2  1  0.130018  0.995599  0.573824  1
  Tl  Tl3  1  0.869982  0.004401  0.426176  1
  Tl  Tl4  1  0.630018  0.504401  0.426176  1
  Ni  Ni5  1  0.500000  -0.000000  0.500000  1
  Ni  Ni6  1  -0.000000  0.500000  0.500000  1
  C  C7  1  0.160288  0.499159  0.440146  1
  C  C8  1  0.501555  0.192895  0.499083  1
  C  C9  1  0.498445  0.807105  0.500917  1
  C  C10  1  0.839712  0.500841  0.559854  1
  C  C11  1  0.001555  0.307105  0.500917  1
  C  C12  1  0.660288  0.000841  0.559854  1
  C  C13  1  0.998445  0.692895  0.499083  1
  C  C14  1  0.339712  0.999159  0.440146  1
  N  N15  1  0.497162  0.684419  0.501459  1
  N  N16  1  0.731293  0.500802  0.595989  1
  N  N17  1  0.502838  0.315581  0.498541  1
  N  N18  1  0.997162  0.815581  0.498541  1
  N  N19  1  0.768707  0.000802  0.595989  1
  N  N20  1  0.002838  0.184419  0.501459  1
  N  N21  1  0.231293  0.999198  0.404011  1
  N  N22  1  0.268707  0.499198  0.404011  1
