# generated using pymatgen
data_Y7C3I6O
_symmetry_space_group_name_H-M   'P 1'
_cell_length_a   3.85335180
_cell_length_b   22.48684005
_cell_length_c   28.43474905
_cell_angle_alpha   90.00000000
_cell_angle_beta   90.00000000
_cell_angle_gamma   90.00000000
_symmetry_Int_Tables_number   1
_chemical_formula_structural   Y7C3I6O
_chemical_formula_sum   'Y14 C6 I12 O2'
_cell_volume   2463.86263351
_cell_formula_units_Z   2
loop_
 _symmetry_equiv_pos_site_id
 _symmetry_equiv_pos_as_xyz
  1  'x, y, z'
loop_
 _atom_site_type_symbol
 _atom_site_label
 _atom_site_symmetry_multiplicity
 _atom_site_fract_x
 _atom_site_fract_y
 _atom_site_fract_z
 _atom_site_occupancy
  Y  Y1  1  0.500000  0.970266  0.444415  1
  Y  Y2  1  0.000000  0.664328  0.417743  1
  Y  Y3  1  0.500000  0.750000  0.493036  1
  Y  Y4  1  0.000000  0.605878  0.525090  1
  Y  Y5  1  0.000000  0.164328  0.582257  1
  Y  Y6  1  0.500000  0.250000  0.506964  1
  Y  Y7  1  0.500000  0.470266  0.555585  1
  Y  Y8  1  0.000000  0.894122  0.525090  1
  Y  Y9  1  0.000000  0.105878  0.474910  1
  Y  Y10  1  0.000000  0.835672  0.417743  1
  Y  Y11  1  0.500000  0.529734  0.444415  1
  Y  Y12  1  0.500000  0.029734  0.555585  1
  Y  Y13  1  0.000000  0.335672  0.582257  1
  Y  Y14  1  0.000000  0.394122  0.474910  1
  C  C15  1  0.500000  0.136409  0.530995  1
  C  C16  1  0.500000  0.636409  0.469005  1
  C  C17  1  0.000000  -0.000000  0.500000  1
  C  C18  1  0.500000  0.863591  0.469005  1
  C  C19  1  0.000000  0.500000  0.500000  1
  C  C20  1  0.500000  0.363591  0.530995  1
  I  I21  1  0.500000  0.250000  0.649084  1
  I  I22  1  0.000000  0.250000  0.422754  1
  I  I23  1  -0.000000  0.056150  0.644377  1
  I  I24  1  0.500000  0.906255  0.609756  1
  I  I25  1  0.500000  0.406255  0.390244  1
  I  I26  1  -0.000000  0.943850  0.355623  1
  I  I27  1  0.000000  0.443850  0.644377  1
  I  I28  1  0.500000  0.093745  0.390244  1
  I  I29  1  -0.000000  0.556150  0.355623  1
  I  I30  1  0.000000  0.750000  0.577246  1
  I  I31  1  0.500000  0.593745  0.609756  1
  I  I32  1  0.500000  0.750000  0.350916  1
  O  O33  1  0.000000  0.750000  0.453914  1
  O  O34  1  0.000000  0.250000  0.546086  1
