# generated using pymatgen
data_CuS4BrN4
_symmetry_space_group_name_H-M   'P 1'
_cell_length_a   6.62767680
_cell_length_b   11.97914333
_cell_length_c   29.00149000
_cell_angle_alpha   90.00000000
_cell_angle_beta   89.52114330
_cell_angle_gamma   90.00000000
_symmetry_Int_Tables_number   1
_chemical_formula_structural   CuS4BrN4
_chemical_formula_sum   'Cu4 S16 Br4 N16'
_cell_volume   2302.46070084
_cell_formula_units_Z   4
loop_
 _symmetry_equiv_pos_site_id
 _symmetry_equiv_pos_as_xyz
  1  'x, y, z'
loop_
 _atom_site_type_symbol
 _atom_site_label
 _atom_site_symmetry_multiplicity
 _atom_site_fract_x
 _atom_site_fract_y
 _atom_site_fract_z
 _atom_site_occupancy
  Cu  Cu1  1  0.597991  0.171511  0.476793  1
  Cu  Cu2  1  0.922229  0.828489  0.523207  1
  Cu  Cu3  1  0.422229  0.671511  0.523207  1
  Cu  Cu4  1  0.097991  0.328489  0.476793  1
  S  S5  1  0.872179  0.080550  0.389569  1
  S  S6  1  0.464490  0.114783  0.582375  1
  S  S7  1  0.148042  0.580550  0.610431  1
  S  S8  1  0.155239  0.573915  0.442136  1
  S  S9  1  0.555730  0.614783  0.417625  1
  S  S10  1  0.258702  0.379189  0.649839  1
  S  S11  1  0.055730  0.885217  0.417625  1
  S  S12  1  0.648042  0.919450  0.610431  1
  S  S13  1  0.364981  0.426085  0.557864  1
  S  S14  1  0.655239  0.926085  0.442136  1
  S  S15  1  0.758702  0.120811  0.649839  1
  S  S16  1  0.372179  0.419450  0.389569  1
  S  S17  1  0.261518  0.620811  0.350161  1
  S  S18  1  0.964490  0.385217  0.582375  1
  S  S19  1  0.864981  0.073915  0.557864  1
  S  S20  1  0.761518  0.879189  0.350161  1
  Br  Br21  1  0.285155  0.854979  0.534416  1
  Br  Br22  1  0.785155  0.645021  0.534416  1
  Br  Br23  1  0.235065  0.145021  0.465584  1
  Br  Br24  1  0.735065  0.354979  0.465584  1
  N  N25  1  0.794851  0.012779  0.345306  1
  N  N26  1  0.294851  0.487221  0.345306  1
  N  N27  1  0.315046  0.558017  0.568790  1
  N  N28  1  0.225370  0.512779  0.654694  1
  N  N29  1  0.374405  0.626160  0.457190  1
  N  N30  1  0.053447  0.326796  0.628052  1
  N  N31  1  0.874405  0.873840  0.457190  1
  N  N32  1  0.145816  0.373840  0.542810  1
  N  N33  1  0.705174  0.058017  0.431210  1
  N  N34  1  0.645816  0.126160  0.542810  1
  N  N35  1  0.815046  0.941983  0.568790  1
  N  N36  1  0.725370  0.987221  0.654694  1
  N  N37  1  0.553447  0.173204  0.628052  1
  N  N38  1  0.466774  0.673204  0.371948  1
  N  N39  1  0.205174  0.441983  0.431210  1
  N  N40  1  0.966774  0.826796  0.371948  1
