# generated using pymatgen
data_P2Pd3S8
_symmetry_space_group_name_H-M   'P 1'
_cell_length_a   6.88273402
_cell_length_b   6.88273393
_cell_length_c   28.56987200
_cell_angle_alpha   90.00000000
_cell_angle_beta   90.00000000
_cell_angle_gamma   120.00000045
_symmetry_Int_Tables_number   1
_chemical_formula_structural   P2Pd3S8
_chemical_formula_sum   'P2 Pd3 S8'
_cell_volume   1172.08981458
_cell_formula_units_Z   1
loop_
 _symmetry_equiv_pos_site_id
 _symmetry_equiv_pos_as_xyz
  1  'x, y, z'
loop_
 _atom_site_type_symbol
 _atom_site_label
 _atom_site_symmetry_multiplicity
 _atom_site_fract_x
 _atom_site_fract_y
 _atom_site_fract_z
 _atom_site_occupancy
  P  P1  1  0.666667  0.333333  0.586611  1
  P  P2  1  0.333333  0.666667  0.413389  1
  Pd  Pd3  1  0.000000  0.500000  0.500000  1
  Pd  Pd4  1  0.500000  0.500000  0.500000  1
  Pd  Pd5  1  0.500000  0.000000  0.500000  1
  S  S6  1  0.642769  0.821384  0.451604  1
  S  S7  1  0.333333  0.666667  0.346912  1
  S  S8  1  0.666667  0.333333  0.653088  1
  S  S9  1  0.357231  0.178616  0.548396  1
  S  S10  1  0.821384  0.642769  0.548396  1
  S  S11  1  0.821384  0.178616  0.548396  1
  S  S12  1  0.178616  0.821384  0.451604  1
  S  S13  1  0.178616  0.357231  0.451604  1
