# generated using pymatgen
data_Mg(AlSe2)2
_symmetry_space_group_name_H-M   'P 1'
_cell_length_a   3.90535974
_cell_length_b   3.90535962
_cell_length_c   29.62724992
_cell_angle_alpha   90.00000000
_cell_angle_beta   90.00000000
_cell_angle_gamma   59.99999900
_symmetry_Int_Tables_number   1
_chemical_formula_structural   Mg(AlSe2)2
_chemical_formula_sum   'Mg1 Al2 Se4'
_cell_volume   391.33081280
_cell_formula_units_Z   1
loop_
 _symmetry_equiv_pos_site_id
 _symmetry_equiv_pos_as_xyz
  1  'x, y, z'
loop_
 _atom_site_type_symbol
 _atom_site_label
 _atom_site_symmetry_multiplicity
 _atom_site_fract_x
 _atom_site_fract_y
 _atom_site_fract_z
 _atom_site_occupancy
  Mg  Mg1  1  0.333333  0.333333  0.500002  1
  Al  Al2  1  0.666667  0.666667  0.626536  1
  Al  Al3  1  0.000000  0.000000  0.373464  1
  Se  Se4  1  -0.000000  -0.000000  0.451438  1
  Se  Se5  1  0.666667  0.666667  0.548564  1
  Se  Se6  1  0.333333  0.333333  0.337399  1
  Se  Se7  1  0.333333  0.333333  0.662597  1
