# generated using pymatgen
data_Zn2SiO4
_symmetry_space_group_name_H-M   'P 1'
_cell_length_a   4.90514564
_cell_length_b   6.21574386
_cell_length_c   24.59346700
_cell_angle_alpha   90.00000000
_cell_angle_beta   90.00000000
_cell_angle_gamma   90.00000000
_symmetry_Int_Tables_number   1
_chemical_formula_structural   Zn2SiO4
_chemical_formula_sum   'Zn4 Si2 O8'
_cell_volume   749.83338532
_cell_formula_units_Z   2
loop_
 _symmetry_equiv_pos_site_id
 _symmetry_equiv_pos_as_xyz
  1  'x, y, z'
loop_
 _atom_site_type_symbol
 _atom_site_label
 _atom_site_symmetry_multiplicity
 _atom_site_fract_x
 _atom_site_fract_y
 _atom_site_fract_z
 _atom_site_occupancy
  Zn  Zn1  1  -0.000000  -0.000000  0.500000  1
  Zn  Zn2  1  0.000000  0.500000  0.500000  1
  Zn  Zn3  1  0.563909  0.750000  0.569730  1
  Zn  Zn4  1  0.436091  0.250000  0.430270  1
  Si  Si5  1  0.428013  0.750000  0.453309  1
  Si  Si6  1  0.571987  0.250000  0.546691  1
  O  O7  1  0.750952  0.750000  0.471346  1
  O  O8  1  0.249048  0.250000  0.528654  1
  O  O9  1  0.257448  0.750000  0.515050  1
  O  O10  1  0.742552  0.250000  0.484950  1
  O  O11  1  0.312973  0.968037  0.424106  1
  O  O12  1  0.687027  0.468037  0.575894  1
  O  O13  1  0.687027  0.031963  0.575894  1
  O  O14  1  0.312973  0.531963  0.424106  1
