# generated using pymatgen
data_LiV(OF)2
_symmetry_space_group_name_H-M   'P 1'
_cell_length_a   3.58132954
_cell_length_b   6.51439782
_cell_length_c   24.57757400
_cell_angle_alpha   90.00000000
_cell_angle_beta   90.00000000
_cell_angle_gamma   90.00000000
_symmetry_Int_Tables_number   1
_chemical_formula_structural   LiV(OF)2
_chemical_formula_sum   'Li2 V2 O4 F4'
_cell_volume   573.39984838
_cell_formula_units_Z   2
loop_
 _symmetry_equiv_pos_site_id
 _symmetry_equiv_pos_as_xyz
  1  'x, y, z'
loop_
 _atom_site_type_symbol
 _atom_site_label
 _atom_site_symmetry_multiplicity
 _atom_site_fract_x
 _atom_site_fract_y
 _atom_site_fract_z
 _atom_site_occupancy
  Li  Li1  1  0.240100  0.697565  0.565280  1
  Li  Li2  1  0.740100  0.302435  0.434720  1
  V  V3  1  0.240287  0.177287  0.536123  1
  V  V4  1  0.740287  0.822713  0.463877  1
  O  O5  1  0.740172  0.126888  0.519770  1
  O  O6  1  0.240128  0.386166  0.572670  1
  O  O7  1  0.740128  0.613834  0.427330  1
  O  O8  1  0.240172  0.873112  0.480230  1
  F  F9  1  0.740157  0.693931  0.535799  1
  F  F10  1  0.740153  0.020392  0.409807  1
  F  F11  1  0.240153  0.979608  0.590193  1
  F  F12  1  0.240157  0.306069  0.464201  1
