# generated using pymatgen
data_Nb2Zn2CrO8
_symmetry_space_group_name_H-M   'P 1'
_cell_length_a   5.31858185
_cell_length_b   6.08401925
_cell_length_c   27.04613846
_cell_angle_alpha   89.99613737
_cell_angle_beta   89.34645221
_cell_angle_gamma   89.99814844
_symmetry_Int_Tables_number   1
_chemical_formula_structural   Nb2Zn2CrO8
_chemical_formula_sum   'Nb4 Zn4 Cr2 O16'
_cell_volume   875.11159737
_cell_formula_units_Z   2
loop_
 _symmetry_equiv_pos_site_id
 _symmetry_equiv_pos_as_xyz
  1  'x, y, z'
loop_
 _atom_site_type_symbol
 _atom_site_label
 _atom_site_symmetry_multiplicity
 _atom_site_fract_x
 _atom_site_fract_y
 _atom_site_fract_z
 _atom_site_occupancy
  Nb  Nb1  1  0.732205  0.845475  0.417332  1
  Nb  Nb2  1  0.761638  0.845127  0.583087  1
  Nb  Nb3  1  0.261626  0.156847  0.583085  1
  Nb  Nb4  1  0.232229  0.156459  0.417335  1
  Zn  Zn5  1  0.770582  0.345196  0.637271  1
  Zn  Zn6  1  0.725602  0.349969  0.361431  1
  Zn  Zn7  1  0.225602  0.651954  0.361473  1
  Zn  Zn8  1  0.270567  0.656708  0.637278  1
  Cr  Cr9  1  0.757409  0.355428  0.500164  1
  Cr  Cr10  1  0.257427  0.646576  0.500161  1
  O  O11  1  0.064076  0.890125  0.450453  1
  O  O12  1  0.427992  0.877497  0.549116  1
  O  O13  1  0.927967  0.124529  0.549118  1
  O  O14  1  0.564003  0.111729  0.450478  1
  O  O15  1  0.590548  0.624181  0.459316  1
  O  O16  1  0.931359  0.643752  0.542225  1
  O  O17  1  0.431297  0.358296  0.542238  1
  O  O18  1  0.090534  0.377767  0.459312  1
  O  O19  1  0.426566  0.898126  0.373938  1
  O  O20  1  0.067301  0.903703  0.626431  1
  O  O21  1  0.368349  0.362465  0.364475  1
  O  O22  1  0.128454  0.366794  0.634718  1
  O  O23  1  0.628392  0.635057  0.634706  1
  O  O24  1  0.868341  0.639425  0.364481  1
  O  O25  1  0.926516  0.103821  0.373947  1
  O  O26  1  0.567314  0.098226  0.626435  1
