# generated using pymatgen
data_SN
_symmetry_space_group_name_H-M   'P 1'
_cell_length_a   3.64992028
_cell_length_b   3.64992028
_cell_length_c   21.29720700
_cell_angle_alpha   90.00000000
_cell_angle_beta   90.00000000
_cell_angle_gamma   90.00000000
_symmetry_Int_Tables_number   1
_chemical_formula_structural   SN
_chemical_formula_sum   'S2 N2'
_cell_volume   283.71964636
_cell_formula_units_Z   2
loop_
 _symmetry_equiv_pos_site_id
 _symmetry_equiv_pos_as_xyz
  1  'x, y, z'
loop_
 _atom_site_type_symbol
 _atom_site_label
 _atom_site_symmetry_multiplicity
 _atom_site_fract_x
 _atom_site_fract_y
 _atom_site_fract_z
 _atom_site_occupancy
  S  S1  1  -0.000000  0.500000  0.469371  1
  S  S2  1  0.500000  -0.000000  0.530629  1
  N  N3  1  -0.000000  0.000000  0.500000  1
  N  N4  1  0.500000  0.500000  0.500000  1
