# generated using pymatgen
data_MgSnO2
_symmetry_space_group_name_H-M   'P 1'
_cell_length_a   3.32158062
_cell_length_b   8.38653905
_cell_length_c   25.83709100
_cell_angle_alpha   90.00000000
_cell_angle_beta   90.00000000
_cell_angle_gamma   92.34130245
_symmetry_Int_Tables_number   1
_chemical_formula_structural   MgSnO2
_chemical_formula_sum   'Mg4 Sn4 O8'
_cell_volume   719.13179037
_cell_formula_units_Z   4
loop_
 _symmetry_equiv_pos_site_id
 _symmetry_equiv_pos_as_xyz
  1  'x, y, z'
loop_
 _atom_site_type_symbol
 _atom_site_label
 _atom_site_symmetry_multiplicity
 _atom_site_fract_x
 _atom_site_fract_y
 _atom_site_fract_z
 _atom_site_occupancy
  Mg  Mg1  1  0.744536  0.353623  0.494717  1
  Mg  Mg2  1  0.282668  0.667520  0.505274  1
  Mg  Mg3  1  0.310784  0.058707  0.575008  1
  Mg  Mg4  1  0.717232  0.962306  0.425014  1
  Sn  Sn5  1  0.969344  0.666111  0.393484  1
  Sn  Sn6  1  0.243357  0.295940  0.388122  1
  Sn  Sn7  1  0.783561  0.725020  0.611882  1
  Sn  Sn8  1  0.058563  0.354908  0.606500  1
  O  O9  1  0.785817  0.545527  0.550455  1
  O  O10  1  0.218753  0.900757  0.389018  1
  O  O11  1  0.809202  0.120249  0.611007  1
  O  O12  1  0.241425  0.475498  0.449526  1
  O  O13  1  0.783054  0.761578  0.466507  1
  O  O14  1  0.729957  0.196223  0.432368  1
  O  O15  1  0.244418  0.259396  0.533479  1
  O  O16  1  0.297196  0.824774  0.567641  1
