# generated using pymatgen
data_Bi2S3
_symmetry_space_group_name_H-M   'P 1'
_cell_length_a   4.03143858
_cell_length_b   9.47647452
_cell_length_c   24.94801200
_cell_angle_alpha   90.00000000
_cell_angle_beta   90.00000000
_cell_angle_gamma   90.00000000
_symmetry_Int_Tables_number   1
_chemical_formula_structural   Bi2S3
_chemical_formula_sum   'Bi4 S6'
_cell_volume   953.10948410
_cell_formula_units_Z   2
loop_
 _symmetry_equiv_pos_site_id
 _symmetry_equiv_pos_as_xyz
  1  'x, y, z'
loop_
 _atom_site_type_symbol
 _atom_site_label
 _atom_site_symmetry_multiplicity
 _atom_site_fract_x
 _atom_site_fract_y
 _atom_site_fract_z
 _atom_site_occupancy
  Bi  Bi1  1  0.250000  0.358265  0.537192  1
  Bi  Bi2  1  0.750000  0.641735  0.462808  1
  Bi  Bi3  1  0.750000  0.001818  0.577722  1
  Bi  Bi4  1  0.250000  0.998182  0.422278  1
  S  S5  1  0.250000  0.838285  0.507813  1
  S  S6  1  0.750000  0.161715  0.492187  1
  S  S7  1  0.750000  0.539331  0.566913  1
  S  S8  1  0.250000  0.460669  0.433087  1
  S  S9  1  0.750000  0.852823  0.376572  1
  S  S10  1  0.250000  0.147177  0.623428  1
