# generated using pymatgen
data_YBr3
_symmetry_space_group_name_H-M   'P 1'
_cell_length_a   7.10990340
_cell_length_b   7.10990324
_cell_length_c   23.28187200
_cell_angle_alpha   90.00000000
_cell_angle_beta   90.00000000
_cell_angle_gamma   119.77580419
_symmetry_Int_Tables_number   1
_chemical_formula_structural   YBr3
_chemical_formula_sum   'Y2 Br6'
_cell_volume   1021.53353352
_cell_formula_units_Z   2
loop_
 _symmetry_equiv_pos_site_id
 _symmetry_equiv_pos_as_xyz
  1  'x, y, z'
loop_
 _atom_site_type_symbol
 _atom_site_label
 _atom_site_symmetry_multiplicity
 _atom_site_fract_x
 _atom_site_fract_y
 _atom_site_fract_z
 _atom_site_occupancy
  Y  Y1  1  0.833104  0.166896  0.500000  1
  Y  Y2  1  0.166896  0.833104  0.500000  1
  Br  Br3  1  0.499556  0.144765  0.430732  1
  Br  Br4  1  0.144765  0.499556  0.430732  1
  Br  Br5  1  0.138732  0.138732  0.570486  1
  Br  Br6  1  0.861268  0.861268  0.429514  1
  Br  Br7  1  0.855235  0.500444  0.569268  1
  Br  Br8  1  0.500444  0.855235  0.569268  1
