# generated using pymatgen
data_CuHgSeBr
_symmetry_space_group_name_H-M   'P 1'
_cell_length_a   4.23914028
_cell_length_b   10.05832625
_cell_length_c   29.36010700
_cell_angle_alpha   90.00000000
_cell_angle_beta   90.00000000
_cell_angle_gamma   90.00000000
_symmetry_Int_Tables_number   1
_chemical_formula_structural   CuHgSeBr
_chemical_formula_sum   'Cu4 Hg4 Se4 Br4'
_cell_volume   1251.87550120
_cell_formula_units_Z   4
loop_
 _symmetry_equiv_pos_site_id
 _symmetry_equiv_pos_as_xyz
  1  'x, y, z'
loop_
 _atom_site_type_symbol
 _atom_site_label
 _atom_site_symmetry_multiplicity
 _atom_site_fract_x
 _atom_site_fract_y
 _atom_site_fract_z
 _atom_site_occupancy
  Cu  Cu1  1  0.000000  0.112111  0.598796  1
  Cu  Cu2  1  0.000000  0.387889  0.598796  1
  Cu  Cu3  1  -0.000000  0.612111  0.401204  1
  Cu  Cu4  1  0.000000  0.887889  0.401204  1
  Hg  Hg5  1  0.500000  0.250000  0.412992  1
  Hg  Hg6  1  0.500000  0.500000  0.500000  1
  Hg  Hg7  1  0.500000  0.750000  0.587008  1
  Hg  Hg8  1  0.500000  -0.000000  0.500000  1
  Se  Se9  1  0.500000  0.502960  0.413104  1
  Se  Se10  1  0.500000  0.497040  0.586896  1
  Se  Se11  1  0.500000  0.997040  0.413104  1
  Se  Se12  1  0.500000  0.002960  0.586896  1
  Br  Br13  1  -0.000000  0.750000  0.335765  1
  Br  Br14  1  -0.000000  0.250000  0.664235  1
  Br  Br15  1  0.000000  0.750000  0.484262  1
  Br  Br16  1  0.000000  0.250000  0.515738  1
