# generated using pymatgen
data_HfNCl
_symmetry_space_group_name_H-M   'P 1'
_cell_length_a   3.58017359
_cell_length_b   3.58017325
_cell_length_c   26.22853500
_cell_angle_alpha   90.00000000
_cell_angle_beta   90.00000000
_cell_angle_gamma   60.00000599
_symmetry_Int_Tables_number   1
_chemical_formula_structural   HfNCl
_chemical_formula_sum   'Hf2 N2 Cl2'
_cell_volume   291.14733504
_cell_formula_units_Z   2
loop_
 _symmetry_equiv_pos_site_id
 _symmetry_equiv_pos_as_xyz
  1  'x, y, z'
loop_
 _atom_site_type_symbol
 _atom_site_label
 _atom_site_symmetry_multiplicity
 _atom_site_fract_x
 _atom_site_fract_y
 _atom_site_fract_z
 _atom_site_occupancy
  Hf  Hf1  1  0.666667  0.666667  0.549841  1
  Hf  Hf2  1  0.333333  0.333333  0.450159  1
  N  N3  1  0.666667  0.666667  0.467307  1
  N  N4  1  0.333333  0.333333  0.532693  1
  Cl  Cl5  1  0.000000  -0.000000  0.618692  1
  Cl  Cl6  1  0.000000  -0.000000  0.381308  1
