# generated using pymatgen
data_HfS3
_symmetry_space_group_name_H-M   'P 1'
_cell_length_a   3.60243733
_cell_length_b   5.13713448
_cell_length_c   25.89158700
_cell_angle_alpha   90.00000000
_cell_angle_beta   90.00000000
_cell_angle_gamma   90.00000000
_symmetry_Int_Tables_number   1
_chemical_formula_structural   HfS3
_chemical_formula_sum   'Hf2 S6'
_cell_volume   479.15501731
_cell_formula_units_Z   2
loop_
 _symmetry_equiv_pos_site_id
 _symmetry_equiv_pos_as_xyz
  1  'x, y, z'
loop_
 _atom_site_type_symbol
 _atom_site_label
 _atom_site_symmetry_multiplicity
 _atom_site_fract_x
 _atom_site_fract_y
 _atom_site_fract_z
 _atom_site_occupancy
  Hf  Hf1  1  0.750000  0.708849  0.446689  1
  Hf  Hf2  1  0.250000  0.208490  0.553311  1
  S  S3  1  0.750000  0.413535  0.613307  1
  S  S4  1  0.250000  0.503804  0.386693  1
  S  S5  1  0.250000  0.708728  0.518520  1
  S  S6  1  0.750000  0.208611  0.481480  1
  S  S7  1  0.250000  0.911905  0.386240  1
  S  S8  1  0.750000  0.005434  0.613760  1
