# generated using pymatgen
data_Ta2NiS5
_symmetry_space_group_name_H-M   'P 1'
_cell_length_a   3.43268489
_cell_length_b   15.20736397
_cell_length_c   24.13582495
_cell_angle_alpha   90.00000000
_cell_angle_beta   90.00000000
_cell_angle_gamma   90.00000000
_symmetry_Int_Tables_number   1
_chemical_formula_structural   Ta2NiS5
_chemical_formula_sum   'Ta4 Ni2 S10'
_cell_volume   1259.94047046
_cell_formula_units_Z   2
loop_
 _symmetry_equiv_pos_site_id
 _symmetry_equiv_pos_as_xyz
  1  'x, y, z'
loop_
 _atom_site_type_symbol
 _atom_site_label
 _atom_site_symmetry_multiplicity
 _atom_site_fract_x
 _atom_site_fract_y
 _atom_site_fract_z
 _atom_site_occupancy
  Ta  Ta1  1  0.000000  0.358659  0.515100  1
  Ta  Ta2  1  0.500000  0.141341  0.484900  1
  Ta  Ta3  1  0.500000  0.858659  0.484900  1
  Ta  Ta4  1  0.000000  0.641341  0.515100  1
  Ni  Ni5  1  -0.000000  0.000000  0.472577  1
  Ni  Ni6  1  0.500000  0.500000  0.527423  1
  S  S7  1  0.500000  0.000000  0.534135  1
  S  S8  1  -0.000000  0.500000  0.465865  1
  S  S9  1  0.000000  0.199783  0.551074  1
  S  S10  1  0.500000  0.300217  0.448926  1
  S  S11  1  0.500000  0.699783  0.448926  1
  S  S12  1  -0.000000  0.800217  0.551074  1
  S  S13  1  0.500000  0.614661  0.585078  1
  S  S14  1  -0.000000  0.885339  0.414922  1
  S  S15  1  0.000000  0.114661  0.414922  1
  S  S16  1  0.500000  0.385339  0.585078  1
