# generated using pymatgen
data_KTeF5
_symmetry_space_group_name_H-M   'P 1'
_cell_length_a   7.07669732
_cell_length_b   12.82979302
_cell_length_c   24.55756800
_cell_angle_alpha   90.00000000
_cell_angle_beta   90.00000000
_cell_angle_gamma   90.00000000
_symmetry_Int_Tables_number   1
_chemical_formula_structural   KTeF5
_chemical_formula_sum   'K4 Te4 F20'
_cell_volume   2229.64451228
_cell_formula_units_Z   4
loop_
 _symmetry_equiv_pos_site_id
 _symmetry_equiv_pos_as_xyz
  1  'x, y, z'
loop_
 _atom_site_type_symbol
 _atom_site_label
 _atom_site_symmetry_multiplicity
 _atom_site_fract_x
 _atom_site_fract_y
 _atom_site_fract_z
 _atom_site_occupancy
  K  K1  1  0.750000  -0.000000  0.415489  1
  K  K2  1  0.250000  0.500000  0.584511  1
  K  K3  1  0.250000  -0.000000  0.584511  1
  K  K4  1  0.750000  0.500000  0.415489  1
  Te  Te5  1  0.548072  0.250000  0.536428  1
  Te  Te6  1  0.951928  0.750000  0.536428  1
  Te  Te7  1  0.048072  0.250000  0.463572  1
  Te  Te8  1  0.451928  0.750000  0.463572  1
  F  F9  1  0.201730  0.750000  0.434391  1
  F  F10  1  0.298270  0.250000  0.434391  1
  F  F11  1  0.701730  0.750000  0.565609  1
  F  F12  1  0.798270  0.250000  0.565609  1
  F  F13  1  0.667918  0.360738  0.487180  1
  F  F14  1  0.832082  0.639262  0.487180  1
  F  F15  1  0.167918  0.139262  0.512820  1
  F  F16  1  0.332082  0.860738  0.512820  1
  F  F17  1  0.508865  0.140011  0.593729  1
  F  F18  1  0.991135  0.859989  0.593729  1
  F  F19  1  0.008865  0.359989  0.406271  1
  F  F20  1  0.491135  0.640011  0.406271  1
  F  F21  1  0.491135  0.859989  0.406271  1
  F  F22  1  0.008865  0.140011  0.406271  1
  F  F23  1  0.991135  0.640011  0.593729  1
  F  F24  1  0.508865  0.359989  0.593729  1
  F  F25  1  0.667918  0.139262  0.487180  1
  F  F26  1  0.832082  0.860738  0.487180  1
  F  F27  1  0.167918  0.360738  0.512820  1
  F  F28  1  0.332082  0.639262  0.512820  1
