# generated using pymatgen
data_K2As2Pd
_symmetry_space_group_name_H-M   'P 1'
_cell_length_a   5.79607714
_cell_length_b   6.43488998
_cell_length_c   26.01064950
_cell_angle_alpha   90.00000000
_cell_angle_beta   90.00000000
_cell_angle_gamma   90.00000000
_symmetry_Int_Tables_number   1
_chemical_formula_structural   K2As2Pd
_chemical_formula_sum   'K4 As4 Pd2'
_cell_volume   970.12228216
_cell_formula_units_Z   2
loop_
 _symmetry_equiv_pos_site_id
 _symmetry_equiv_pos_as_xyz
  1  'x, y, z'
loop_
 _atom_site_type_symbol
 _atom_site_label
 _atom_site_symmetry_multiplicity
 _atom_site_fract_x
 _atom_site_fract_y
 _atom_site_fract_z
 _atom_site_occupancy
  K  K1  1  0.250000  -0.000000  0.457851  1
  K  K2  1  0.750000  -0.000000  0.542149  1
  K  K3  1  0.250000  0.500000  0.385983  1
  K  K4  1  0.750000  0.500000  0.614017  1
  As  As5  1  0.750000  0.691775  0.433894  1
  As  As6  1  0.250000  0.308225  0.566106  1
  As  As7  1  0.250000  0.691775  0.566106  1
  As  As8  1  0.750000  0.308225  0.433894  1
  Pd  Pd9  1  -0.000000  0.500000  0.500000  1
  Pd  Pd10  1  0.500000  0.500000  0.500000  1
