# generated using pymatgen
data_ErBiO3
_symmetry_space_group_name_H-M   'P 1'
_cell_length_a   5.99164249
_cell_length_b   5.99164284
_cell_length_c   25.74889846
_cell_angle_alpha   90.00000000
_cell_angle_beta   90.00000000
_cell_angle_gamma   59.99999084
_symmetry_Int_Tables_number   1
_chemical_formula_structural   ErBiO3
_chemical_formula_sum   'Er2 Bi2 O6'
_cell_volume   800.53634829
_cell_formula_units_Z   2
loop_
 _symmetry_equiv_pos_site_id
 _symmetry_equiv_pos_as_xyz
  1  'x, y, z'
loop_
 _atom_site_type_symbol
 _atom_site_label
 _atom_site_symmetry_multiplicity
 _atom_site_fract_x
 _atom_site_fract_y
 _atom_site_fract_z
 _atom_site_occupancy
  Er  Er1  1  0.333333  0.333333  0.482490  1
  Er  Er2  1  0.666667  0.666667  0.517510  1
  Bi  Bi3  1  0.333333  0.333333  0.602861  1
  Bi  Bi4  1  0.666667  0.666667  0.397139  1
  O  O5  1  0.967116  0.440596  0.447668  1
  O  O6  1  0.592288  0.967116  0.447668  1
  O  O7  1  0.440596  0.592288  0.447668  1
  O  O8  1  0.559404  0.407712  0.552332  1
  O  O9  1  0.407712  0.032884  0.552332  1
  O  O10  1  0.032884  0.559404  0.552332  1
