# generated using pymatgen
data_Nb(SeBr)2
_symmetry_space_group_name_H-M   'P 1'
_cell_length_a   6.71844317
_cell_length_b   6.77200701
_cell_length_c   24.51078874
_cell_angle_alpha   90.08042491
_cell_angle_beta   90.06433729
_cell_angle_gamma   60.23867014
_symmetry_Int_Tables_number   1
_chemical_formula_structural   Nb(SeBr)2
_chemical_formula_sum   'Nb2 Se4 Br4'
_cell_volume   968.08378617
_cell_formula_units_Z   2
loop_
 _symmetry_equiv_pos_site_id
 _symmetry_equiv_pos_as_xyz
  1  'x, y, z'
loop_
 _atom_site_type_symbol
 _atom_site_label
 _atom_site_symmetry_multiplicity
 _atom_site_fract_x
 _atom_site_fract_y
 _atom_site_fract_z
 _atom_site_occupancy
  Nb  Nb1  1  0.873604  0.252828  0.500004  1
  Nb  Nb2  1  0.126396  0.747172  0.499996  1
  Se  Se3  1  0.703849  0.000106  0.463146  1
  Se  Se4  1  0.296151  0.999894  0.536854  1
  Se  Se5  1  0.988779  0.999675  0.410008  1
  Se  Se6  1  0.011221  0.000325  0.589992  1
  Br  Br7  1  0.518237  0.583520  0.436712  1
  Br  Br8  1  0.481763  0.416480  0.563288  1
  Br  Br9  1  0.897695  0.584242  0.563203  1
  Br  Br10  1  0.102305  0.415758  0.436797  1
