# generated using pymatgen
data_CrPS4
_symmetry_space_group_name_H-M   'P 1'
_cell_length_a   6.54819739
_cell_length_b   6.54819786
_cell_length_c   23.70870500
_cell_angle_alpha   90.00000000
_cell_angle_beta   90.00000000
_cell_angle_gamma   67.51057428
_symmetry_Int_Tables_number   1
_chemical_formula_structural   CrPS4
_chemical_formula_sum   'Cr2 P2 S8'
_cell_volume   939.29049160
_cell_formula_units_Z   2
loop_
 _symmetry_equiv_pos_site_id
 _symmetry_equiv_pos_as_xyz
  1  'x, y, z'
loop_
 _atom_site_type_symbol
 _atom_site_label
 _atom_site_symmetry_multiplicity
 _atom_site_fract_x
 _atom_site_fract_y
 _atom_site_fract_z
 _atom_site_occupancy
  Cr  Cr1  1  0.253535  0.746465  0.500000  1
  Cr  Cr2  1  0.746465  0.253535  0.500000  1
  P  P3  1  0.293527  0.293527  0.456406  1
  P  P4  1  0.706473  0.706473  0.543594  1
  S  S5  1  0.404735  0.873769  0.578259  1
  S  S6  1  0.126231  0.595265  0.421741  1
  S  S7  1  0.595265  0.126231  0.421741  1
  S  S8  1  0.873769  0.404735  0.578259  1
  S  S9  1  0.100824  0.100824  0.449782  1
  S  S10  1  0.899176  0.899176  0.550218  1
  S  S11  1  0.626731  0.626731  0.462691  1
  S  S12  1  0.373269  0.373269  0.537309  1
