# generated using pymatgen
data_NaB(CO2)4
_symmetry_space_group_name_H-M   'P 1'
_cell_length_a   7.88833997
_cell_length_b   10.36931001
_cell_length_c   22.92525500
_cell_angle_alpha   90.00000000
_cell_angle_beta   90.00000000
_cell_angle_gamma   90.00000000
_symmetry_Int_Tables_number   1
_chemical_formula_structural   NaB(CO2)4
_chemical_formula_sum   'Na2 B2 C8 O16'
_cell_volume   1875.20889005
_cell_formula_units_Z   2
loop_
 _symmetry_equiv_pos_site_id
 _symmetry_equiv_pos_as_xyz
  1  'x, y, z'
loop_
 _atom_site_type_symbol
 _atom_site_label
 _atom_site_symmetry_multiplicity
 _atom_site_fract_x
 _atom_site_fract_y
 _atom_site_fract_z
 _atom_site_occupancy
  Na  Na1  1  0.250000  0.578518  0.500000  1
  Na  Na2  1  0.750000  0.421482  0.500000  1
  B  B3  1  0.750000  0.933469  0.500000  1
  B  B4  1  0.250000  0.066531  0.500000  1
  C  C5  1  0.847042  0.723431  0.500000  1
  C  C6  1  0.652958  0.723431  0.500000  1
  C  C7  1  0.152958  0.276569  0.500000  1
  C  C8  1  0.750000  0.139883  0.466331  1
  C  C9  1  0.347042  0.276569  0.500000  1
  C  C10  1  0.750000  0.139883  0.533669  1
  C  C11  1  0.250000  0.860117  0.533669  1
  C  C12  1  0.250000  0.860117  0.466331  1
  O  O13  1  0.567301  0.625267  0.500000  1
  O  O14  1  0.250000  0.982536  0.448661  1
  O  O15  1  0.399597  0.155899  0.500000  1
  O  O16  1  0.932699  0.625267  0.500000  1
  O  O17  1  0.067301  0.374733  0.500000  1
  O  O18  1  0.750000  0.017464  0.551339  1
  O  O19  1  0.600403  0.844101  0.500000  1
  O  O20  1  0.750000  0.235823  0.564073  1
  O  O21  1  0.432699  0.374733  0.500000  1
  O  O22  1  0.250000  0.764177  0.435927  1
  O  O23  1  0.750000  0.017464  0.448661  1
  O  O24  1  0.100403  0.155899  0.500000  1
  O  O25  1  0.750000  0.235823  0.435927  1
  O  O26  1  0.250000  0.982536  0.551339  1
  O  O27  1  0.250000  0.764177  0.564073  1
  O  O28  1  0.899597  0.844101  0.500000  1
