# generated using pymatgen
data_UBrO2
_symmetry_space_group_name_H-M   'P 1'
_cell_length_a   3.99749443
_cell_length_b   4.15085906
_cell_length_c   27.53284400
_cell_angle_alpha   90.00000000
_cell_angle_beta   90.00000000
_cell_angle_gamma   90.00000000
_symmetry_Int_Tables_number   1
_chemical_formula_structural   UBrO2
_chemical_formula_sum   'U2 Br2 O4'
_cell_volume   456.85347091
_cell_formula_units_Z   2
loop_
 _symmetry_equiv_pos_site_id
 _symmetry_equiv_pos_as_xyz
  1  'x, y, z'
loop_
 _atom_site_type_symbol
 _atom_site_label
 _atom_site_symmetry_multiplicity
 _atom_site_fract_x
 _atom_site_fract_y
 _atom_site_fract_z
 _atom_site_occupancy
  U  U1  1  0.750000  0.000000  0.557631  1
  U  U2  1  0.250000  -0.000000  0.442369  1
  Br  Br3  1  0.250000  -0.000000  0.636747  1
  Br  Br4  1  0.750000  -0.000000  0.363253  1
  O  O5  1  0.750000  0.500000  0.558768  1
  O  O6  1  0.250000  0.500000  0.441232  1
  O  O7  1  0.250000  0.000000  0.526572  1
  O  O8  1  0.750000  0.000000  0.473428  1
