# generated using pymatgen
data_V2PbO6
_symmetry_space_group_name_H-M   'P 1'
_cell_length_a   3.73201374
_cell_length_b   8.15378880
_cell_length_c   29.52697100
_cell_angle_alpha   90.00000000
_cell_angle_beta   90.00000000
_cell_angle_gamma   103.22946810
_symmetry_Int_Tables_number   1
_chemical_formula_structural   V2PbO6
_chemical_formula_sum   'V4 Pb2 O12'
_cell_volume   874.66206991
_cell_formula_units_Z   2
loop_
 _symmetry_equiv_pos_site_id
 _symmetry_equiv_pos_as_xyz
  1  'x, y, z'
loop_
 _atom_site_type_symbol
 _atom_site_label
 _atom_site_symmetry_multiplicity
 _atom_site_fract_x
 _atom_site_fract_y
 _atom_site_fract_z
 _atom_site_occupancy
  V  V1  1  0.531529  0.063057  0.394083  1
  V  V2  1  0.468471  0.936943  0.605917  1
  V  V3  1  0.862782  0.725565  0.542660  1
  V  V4  1  0.137218  0.274435  0.457340  1
  Pb  Pb5  1  0.828886  0.657770  0.416734  1
  Pb  Pb6  1  0.171114  0.342230  0.583266  1
  O  O7  1  0.625575  0.251150  0.439954  1
  O  O8  1  0.374425  0.748850  0.560046  1
  O  O9  1  0.950619  0.901238  0.589687  1
  O  O10  1  0.049381  0.098762  0.410313  1
  O  O11  1  0.553251  0.106503  0.340545  1
  O  O12  1  0.446749  0.893497  0.659455  1
  O  O13  1  0.108312  0.216624  0.512199  1
  O  O14  1  0.891688  0.783376  0.487801  1
  O  O15  1  0.421611  0.843221  0.401711  1
  O  O16  1  0.755235  0.510471  0.546817  1
  O  O17  1  0.244765  0.489529  0.453183  1
  O  O18  1  0.578389  0.156779  0.598289  1
