# generated using pymatgen
data_VOF3
_symmetry_space_group_name_H-M   'P 1'
_cell_length_a   5.54347101
_cell_length_b   10.54969930
_cell_length_c   23.32620900
_cell_angle_alpha   90.00000000
_cell_angle_beta   90.00000000
_cell_angle_gamma   87.94798295
_symmetry_Int_Tables_number   1
_chemical_formula_structural   VOF3
_chemical_formula_sum   'V4 O4 F12'
_cell_volume   1363.28744630
_cell_formula_units_Z   4
loop_
 _symmetry_equiv_pos_site_id
 _symmetry_equiv_pos_as_xyz
  1  'x, y, z'
loop_
 _atom_site_type_symbol
 _atom_site_label
 _atom_site_symmetry_multiplicity
 _atom_site_fract_x
 _atom_site_fract_y
 _atom_site_fract_z
 _atom_site_occupancy
  V  V1  1  0.535202  0.231771  0.503527  1
  V  V2  1  0.462121  0.723734  0.502619  1
  V  V3  1  0.959175  0.477575  0.496886  1
  V  V4  1  0.966874  0.983015  0.497123  1
  O  O5  1  0.786097  0.142175  0.516261  1
  O  O6  1  0.735225  0.898645  0.484084  1
  O  O7  1  0.720277  0.390854  0.484924  1
  O  O8  1  0.282060  0.608590  0.514680  1
  F  F9  1  0.041018  0.051493  0.430285  1
  F  F10  1  0.483459  0.311040  0.569523  1
  F  F11  1  0.487545  0.800174  0.569681  1
  F  F12  1  0.765455  0.636285  0.517314  1
  F  F13  1  0.992221  0.465816  0.572293  1
  F  F14  1  0.997011  0.555145  0.430512  1
  F  F15  1  0.316995  0.113255  0.516895  1
  F  F16  1  0.218057  0.853480  0.482430  1
  F  F17  1  0.195406  0.357306  0.483321  1
  F  F18  1  0.522636  0.712947  0.428143  1
  F  F19  1  0.509065  0.222867  0.428086  1
  F  F20  1  0.024102  0.963830  0.571415  1
