# generated using pymatgen
data_Al2FeS4
_symmetry_space_group_name_H-M   'P 1'
_cell_length_a   3.57749081
_cell_length_b   3.57749144
_cell_length_c   29.02009000
_cell_angle_alpha   90.00000000
_cell_angle_beta   90.00000000
_cell_angle_gamma   59.99999663
_symmetry_Int_Tables_number   1
_chemical_formula_structural   Al2FeS4
_chemical_formula_sum   'Al2 Fe1 S4'
_cell_volume   321.65218172
_cell_formula_units_Z   1
loop_
 _symmetry_equiv_pos_site_id
 _symmetry_equiv_pos_as_xyz
  1  'x, y, z'
loop_
 _atom_site_type_symbol
 _atom_site_label
 _atom_site_symmetry_multiplicity
 _atom_site_fract_x
 _atom_site_fract_y
 _atom_site_fract_z
 _atom_site_occupancy
  Al  Al1  1  0.666667  0.666667  0.502808  1
  Al  Al2  1  0.333333  0.333333  0.377253  1
  Fe  Fe3  1  0.000000  0.000000  0.625713  1
  S  S4  1  0.000000  0.000000  0.543187  1
  S  S5  1  0.666667  0.666667  0.343470  1
  S  S6  1  0.666667  0.666667  0.654081  1
  S  S7  1  0.333333  0.333333  0.453489  1
