# generated using pymatgen
data_LiWCl6
_symmetry_space_group_name_H-M   'P 1'
_cell_length_a   12.32210759
_cell_length_b   12.32210805
_cell_length_c   22.44977935
_cell_angle_alpha   90.00000000
_cell_angle_beta   90.00000000
_cell_angle_gamma   60.00000120
_symmetry_Int_Tables_number   1
_chemical_formula_structural   LiWCl6
_chemical_formula_sum   'Li4 W4 Cl24'
_cell_volume   2951.97532422
_cell_formula_units_Z   4
loop_
 _symmetry_equiv_pos_site_id
 _symmetry_equiv_pos_as_xyz
  1  'x, y, z'
loop_
 _atom_site_type_symbol
 _atom_site_label
 _atom_site_symmetry_multiplicity
 _atom_site_fract_x
 _atom_site_fract_y
 _atom_site_fract_z
 _atom_site_occupancy
  Li  Li1  1  0.333333  0.333333  0.502963  1
  Li  Li2  1  0.500462  0.500196  0.501055  1
  Li  Li3  1  0.500196  0.999343  0.501055  1
  Li  Li4  1  0.999343  0.500462  0.501055  1
  W  W5  1  0.160002  0.160552  0.499689  1
  W  W6  1  0.666667  0.666667  0.499478  1
  W  W7  1  0.160552  0.679447  0.499689  1
  W  W8  1  0.679447  0.160002  0.499689  1
  Cl  Cl9  1  0.665305  0.012048  0.439317  1
  Cl  Cl10  1  0.165634  0.012308  0.437287  1
  Cl  Cl11  1  0.665842  0.822770  0.560265  1
  Cl  Cl12  1  0.012308  0.822057  0.437287  1
  Cl  Cl13  1  0.822770  0.511386  0.560265  1
  Cl  Cl14  1  0.320681  0.010359  0.560099  1
  Cl  Cl15  1  0.012048  0.322646  0.439317  1
  Cl  Cl16  1  0.509353  0.323908  0.441307  1
  Cl  Cl17  1  0.512560  0.164682  0.560782  1
  Cl  Cl18  1  0.511386  0.665842  0.560265  1
  Cl  Cl19  1  0.164682  0.322758  0.560782  1
  Cl  Cl20  1  0.663355  0.512453  0.438955  1
  Cl  Cl21  1  0.822057  0.165634  0.437287  1
  Cl  Cl22  1  0.010141  0.165167  0.560431  1
  Cl  Cl23  1  0.166739  0.509353  0.441307  1
  Cl  Cl24  1  0.323908  0.166739  0.441307  1
  Cl  Cl25  1  0.322758  0.512560  0.560782  1
  Cl  Cl26  1  0.824194  0.663355  0.438955  1
  Cl  Cl27  1  0.668961  0.320681  0.560099  1
  Cl  Cl28  1  0.165167  0.824692  0.560431  1
  Cl  Cl29  1  0.824692  0.010141  0.560431  1
  Cl  Cl30  1  0.010359  0.668961  0.560099  1
  Cl  Cl31  1  0.322646  0.665305  0.439317  1
  Cl  Cl32  1  0.512453  0.824194  0.438955  1
