# generated using pymatgen
data_Te(WO4)2
_symmetry_space_group_name_H-M   'P 1'
_cell_length_a   5.40498693
_cell_length_b   10.10653856
_cell_length_c   26.90099800
_cell_angle_alpha   90.00000000
_cell_angle_beta   90.00000000
_cell_angle_gamma   98.81762608
_symmetry_Int_Tables_number   1
_chemical_formula_structural   Te(WO4)2
_chemical_formula_sum   'Te2 W4 O16'
_cell_volume   1452.11862675
_cell_formula_units_Z   2
loop_
 _symmetry_equiv_pos_site_id
 _symmetry_equiv_pos_as_xyz
  1  'x, y, z'
loop_
 _atom_site_type_symbol
 _atom_site_label
 _atom_site_symmetry_multiplicity
 _atom_site_fract_x
 _atom_site_fract_y
 _atom_site_fract_z
 _atom_site_occupancy
  Te  Te1  1  0.750000  0.250000  0.620074  1
  Te  Te2  1  0.250000  0.750000  0.379926  1
  W  W3  1  0.216508  0.475764  0.466580  1
  W  W4  1  0.283492  0.024236  0.466580  1
  W  W5  1  0.783492  0.524236  0.533420  1
  W  W6  1  0.716508  0.975764  0.533420  1
  O  O7  1  0.406014  0.126556  0.417408  1
  O  O8  1  0.093986  0.373444  0.417408  1
  O  O9  1  0.593986  0.873444  0.582592  1
  O  O10  1  0.906014  0.626556  0.582592  1
  O  O11  1  0.475546  0.589578  0.522407  1
  O  O12  1  0.024455  0.910422  0.522407  1
  O  O13  1  0.524455  0.410422  0.477593  1
  O  O14  1  0.975545  0.089578  0.477593  1
  O  O15  1  0.882535  0.128004  0.578992  1
  O  O16  1  0.617465  0.371996  0.578992  1
  O  O17  1  0.117465  0.871996  0.421008  1
  O  O18  1  0.382535  0.628004  0.421008  1
  O  O19  1  0.472676  0.105054  0.522051  1
  O  O20  1  0.527324  0.894946  0.477949  1
  O  O21  1  0.027324  0.394946  0.522051  1
  O  O22  1  0.972676  0.605054  0.477949  1
