# generated using pymatgen
data_Fe3S4
_symmetry_space_group_name_H-M   'P 1'
_cell_length_a   3.08186113
_cell_length_b   3.08186178
_cell_length_c   29.22144736
_cell_angle_alpha   90.00000000
_cell_angle_beta   90.00000000
_cell_angle_gamma   60.00000706
_symmetry_Int_Tables_number   1
_chemical_formula_structural   Fe3S4
_chemical_formula_sum   'Fe3 S4'
_cell_volume   240.35801433
_cell_formula_units_Z   1
loop_
 _symmetry_equiv_pos_site_id
 _symmetry_equiv_pos_as_xyz
  1  'x, y, z'
loop_
 _atom_site_type_symbol
 _atom_site_label
 _atom_site_symmetry_multiplicity
 _atom_site_fract_x
 _atom_site_fract_y
 _atom_site_fract_z
 _atom_site_occupancy
  Fe  Fe1  1  0.666667  0.666667  0.500138  1
  Fe  Fe2  1  0.000000  0.000000  0.616559  1
  Fe  Fe3  1  0.000000  0.000000  0.383792  1
  S  S4  1  0.333333  0.333333  0.659444  1
  S  S5  1  0.333333  0.333333  0.553670  1
  S  S6  1  0.333333  0.333333  0.446289  1
  S  S7  1  0.333333  0.333333  0.340107  1
