# generated using pymatgen
data_VF4
_symmetry_space_group_name_H-M   'P 1'
_cell_length_a   4.95206683
_cell_length_b   7.42719281
_cell_length_c   25.66281700
_cell_angle_alpha   90.00000000
_cell_angle_beta   90.00000000
_cell_angle_gamma   90.00000000
_symmetry_Int_Tables_number   1
_chemical_formula_structural   VF4
_chemical_formula_sum   'V4 F16'
_cell_volume   943.87725840
_cell_formula_units_Z   4
loop_
 _symmetry_equiv_pos_site_id
 _symmetry_equiv_pos_as_xyz
  1  'x, y, z'
loop_
 _atom_site_type_symbol
 _atom_site_label
 _atom_site_symmetry_multiplicity
 _atom_site_fract_x
 _atom_site_fract_y
 _atom_site_fract_z
 _atom_site_occupancy
  V  V1  1  0.748175  0.733089  0.443366  1
  V  V2  1  0.751825  0.233089  0.443366  1
  V  V3  1  0.248175  0.705511  0.556634  1
  V  V4  1  0.251825  0.205511  0.556634  1
  F  F5  1  0.058514  0.671293  0.489485  1
  F  F6  1  0.441486  0.171293  0.489485  1
  F  F7  1  0.630198  0.481876  0.447683  1
  F  F8  1  0.443182  0.801862  0.414073  1
  F  F9  1  0.869802  0.981876  0.447683  1
  F  F10  1  0.056818  0.301862  0.414073  1
  F  F11  1  0.952140  0.683276  0.389699  1
  F  F12  1  0.547860  0.183276  0.389699  1
  F  F13  1  0.452140  0.755323  0.610301  1
  F  F14  1  0.047860  0.255323  0.610301  1
  F  F15  1  0.943182  0.636737  0.585927  1
  F  F16  1  0.130198  0.956723  0.552317  1
  F  F17  1  0.556818  0.136737  0.585927  1
  F  F18  1  0.369802  0.456723  0.552317  1
  F  F19  1  0.558514  0.767306  0.510515  1
  F  F20  1  0.941486  0.267306  0.510515  1
