# generated using pymatgen
data_Mg2Ni3O8
_symmetry_space_group_name_H-M   'P 1'
_cell_length_a   4.89786708
_cell_length_b   5.73887359
_cell_length_c   21.67419252
_cell_angle_alpha   90.00000000
_cell_angle_beta   89.40203688
_cell_angle_gamma   90.00000000
_symmetry_Int_Tables_number   1
_chemical_formula_structural   Mg2Ni3O8
_chemical_formula_sum   'Mg2 Ni3 O8'
_cell_volume   609.19022827
_cell_formula_units_Z   1
loop_
 _symmetry_equiv_pos_site_id
 _symmetry_equiv_pos_as_xyz
  1  'x, y, z'
loop_
 _atom_site_type_symbol
 _atom_site_label
 _atom_site_symmetry_multiplicity
 _atom_site_fract_x
 _atom_site_fract_y
 _atom_site_fract_z
 _atom_site_occupancy
  Mg  Mg1  1  0.294970  0.000000  0.569529  1
  Mg  Mg2  1  0.298513  0.000000  0.430471  1
  Ni  Ni3  1  0.296742  0.500000  0.500000  1
  Ni  Ni4  1  0.796742  0.252236  0.500000  1
  Ni  Ni5  1  0.796742  0.747764  0.500000  1
  O  O6  1  0.915385  0.000000  0.450479  1
  O  O7  1  0.678099  0.000000  0.549521  1
  O  O8  1  0.965894  0.500000  0.455362  1
  O  O9  1  0.627590  0.500000  0.544638  1
  O  O10  1  0.112817  0.724907  0.546046  1
  O  O11  1  0.112817  0.275093  0.546046  1
  O  O12  1  0.480667  0.724907  0.453954  1
  O  O13  1  0.480667  0.275093  0.453954  1
