# generated using pymatgen
data_Ca3Fe2Cl2O5
_symmetry_space_group_name_H-M   'P 1'
_cell_length_a   3.87897921
_cell_length_b   3.87897921
_cell_length_c   29.49702105
_cell_angle_alpha   90.00000000
_cell_angle_beta   90.00000000
_cell_angle_gamma   90.00000000
_symmetry_Int_Tables_number   1
_chemical_formula_structural   Ca3Fe2Cl2O5
_chemical_formula_sum   'Ca3 Fe2 Cl2 O5'
_cell_volume   443.82632878
_cell_formula_units_Z   1
loop_
 _symmetry_equiv_pos_site_id
 _symmetry_equiv_pos_as_xyz
  1  'x, y, z'
loop_
 _atom_site_type_symbol
 _atom_site_label
 _atom_site_symmetry_multiplicity
 _atom_site_fract_x
 _atom_site_fract_y
 _atom_site_fract_z
 _atom_site_occupancy
  Ca  Ca1  1  0.500000  0.500000  0.621528  1
  Ca  Ca2  1  0.500000  0.500000  0.378472  1
  Ca  Ca3  1  0.500000  0.500000  0.500000  1
  Fe  Fe4  1  -0.000000  -0.000000  0.434976  1
  Fe  Fe5  1  0.000000  0.000000  0.565024  1
  Cl  Cl6  1  0.000000  0.000000  0.337945  1
  Cl  Cl7  1  -0.000000  -0.000000  0.662055  1
  O  O8  1  0.500000  0.000000  0.573765  1
  O  O9  1  0.000000  0.500000  0.573765  1
  O  O10  1  0.500000  -0.000000  0.426235  1
  O  O11  1  -0.000000  0.500000  0.426235  1
  O  O12  1  -0.000000  0.000000  0.500000  1
