# generated using pymatgen
data_Hf2CuGe4
_symmetry_space_group_name_H-M   'P 1'
_cell_length_a   3.77274196
_cell_length_b   3.77795756
_cell_length_c   34.72160500
_cell_angle_alpha   90.00000000
_cell_angle_beta   90.00000000
_cell_angle_gamma   90.00000000
_symmetry_Int_Tables_number   1
_chemical_formula_structural   Hf2CuGe4
_chemical_formula_sum   'Hf4 Cu2 Ge8'
_cell_volume   494.89602930
_cell_formula_units_Z   2
loop_
 _symmetry_equiv_pos_site_id
 _symmetry_equiv_pos_as_xyz
  1  'x, y, z'
loop_
 _atom_site_type_symbol
 _atom_site_label
 _atom_site_symmetry_multiplicity
 _atom_site_fract_x
 _atom_site_fract_y
 _atom_site_fract_z
 _atom_site_occupancy
  Hf  Hf1  1  0.500000  0.500000  0.430978  1
  Hf  Hf2  1  0.000000  0.000000  0.569022  1
  Hf  Hf3  1  0.500000  0.500000  0.693781  1
  Hf  Hf4  1  0.000000  -0.000000  0.306219  1
  Cu  Cu5  1  -0.000000  0.500000  0.499945  1
  Cu  Cu6  1  0.500000  -0.000000  0.500055  1
  Ge  Ge7  1  0.500000  -0.000000  0.369302  1
  Ge  Ge8  1  0.000000  0.500000  0.630698  1
  Ge  Ge9  1  0.500000  0.500000  0.546616  1
  Ge  Ge10  1  0.000000  -0.000000  0.453384  1
  Ge  Ge11  1  -0.000000  0.000000  0.712009  1
  Ge  Ge12  1  0.500000  0.500000  0.287991  1
  Ge  Ge13  1  -0.000000  0.500000  0.369107  1
  Ge  Ge14  1  0.500000  -0.000000  0.630893  1
