# generated using pymatgen
data_La2PBr2
_symmetry_space_group_name_H-M   'P 1'
_cell_length_a   4.24839150
_cell_length_b   4.24839110
_cell_length_c   27.28582997
_cell_angle_alpha   90.00000000
_cell_angle_beta   90.00000000
_cell_angle_gamma   119.99999534
_symmetry_Int_Tables_number   1
_chemical_formula_structural   La2PBr2
_chemical_formula_sum   'La2 P1 Br2'
_cell_volume   426.49784602
_cell_formula_units_Z   1
loop_
 _symmetry_equiv_pos_site_id
 _symmetry_equiv_pos_as_xyz
  1  'x, y, z'
loop_
 _atom_site_type_symbol
 _atom_site_label
 _atom_site_symmetry_multiplicity
 _atom_site_fract_x
 _atom_site_fract_y
 _atom_site_fract_z
 _atom_site_occupancy
  La  La1  1  0.333333  0.666667  0.560745  1
  La  La2  1  0.666667  0.333333  0.439255  1
  P  P3  1  -0.000000  0.000000  0.500000  1
  Br  Br4  1  0.666667  0.333333  0.629706  1
  Br  Br5  1  0.333333  0.666667  0.370294  1
