# generated using pymatgen
data_MgW2O5
_symmetry_space_group_name_H-M   'P 1'
_cell_length_a   3.70461309
_cell_length_b   5.87220164
_cell_length_c   23.45301000
_cell_angle_alpha   90.00000000
_cell_angle_beta   90.00000000
_cell_angle_gamma   108.38716503
_symmetry_Int_Tables_number   1
_chemical_formula_structural   MgW2O5
_chemical_formula_sum   'Mg1 W2 O5'
_cell_volume   484.15478020
_cell_formula_units_Z   1
loop_
 _symmetry_equiv_pos_site_id
 _symmetry_equiv_pos_as_xyz
  1  'x, y, z'
loop_
 _atom_site_type_symbol
 _atom_site_label
 _atom_site_symmetry_multiplicity
 _atom_site_fract_x
 _atom_site_fract_y
 _atom_site_fract_z
 _atom_site_occupancy
  Mg  Mg1  1  0.903458  0.806916  0.500000  1
  W  W2  1  0.188254  0.376508  0.441449  1
  W  W3  1  0.188254  0.376508  0.558551  1
  O  O4  1  0.334034  0.668068  0.500000  1
  O  O5  1  0.746010  0.492020  0.572630  1
  O  O6  1  0.746010  0.492020  0.427370  1
  O  O7  1  0.027027  0.054054  0.436538  1
  O  O8  1  0.027027  0.054054  0.563462  1
