# generated using pymatgen
data_NbV3O10
_symmetry_space_group_name_H-M   'P 1'
_cell_length_a   6.66507227
_cell_length_b   6.66507227
_cell_length_c   22.23682080
_cell_angle_alpha   90.00000000
_cell_angle_beta   90.00000000
_cell_angle_gamma   90.00000000
_symmetry_Int_Tables_number   1
_chemical_formula_structural   NbV3O10
_chemical_formula_sum   'Nb1 V3 O10'
_cell_volume   987.83047902
_cell_formula_units_Z   1
loop_
 _symmetry_equiv_pos_site_id
 _symmetry_equiv_pos_as_xyz
  1  'x, y, z'
loop_
 _atom_site_type_symbol
 _atom_site_label
 _atom_site_symmetry_multiplicity
 _atom_site_fract_x
 _atom_site_fract_y
 _atom_site_fract_z
 _atom_site_occupancy
  Nb  Nb1  1  0.500000  0.500000  0.500000  1
  V  V2  1  0.500000  -0.000000  0.473222  1
  V  V3  1  -0.000000  0.500000  0.526778  1
  V  V4  1  0.000000  -0.000000  0.500000  1
  O  O5  1  0.000000  0.217024  0.544075  1
  O  O6  1  0.500000  -0.000000  0.545874  1
  O  O7  1  0.217024  -0.000000  0.455925  1
  O  O8  1  0.782976  -0.000000  0.455925  1
  O  O9  1  -0.000000  0.782976  0.544075  1
  O  O10  1  0.500000  0.728039  0.450566  1
  O  O11  1  0.728039  0.500000  0.549434  1
  O  O12  1  0.271961  0.500000  0.549434  1
  O  O13  1  -0.000000  0.500000  0.454126  1
  O  O14  1  0.500000  0.271961  0.450566  1
