# generated using pymatgen
data_C3N
_symmetry_space_group_name_H-M   'P 1'
_cell_length_a   3.73804541
_cell_length_b   6.52067995
_cell_length_c   20.76671400
_cell_angle_alpha   90.00000000
_cell_angle_beta   89.98469739
_cell_angle_gamma   90.00000000
_symmetry_Int_Tables_number   1
_chemical_formula_structural   C3N
_chemical_formula_sum   'C6 N2'
_cell_volume   506.18028277
_cell_formula_units_Z   2
loop_
 _symmetry_equiv_pos_site_id
 _symmetry_equiv_pos_as_xyz
  1  'x, y, z'
loop_
 _atom_site_type_symbol
 _atom_site_label
 _atom_site_symmetry_multiplicity
 _atom_site_fract_x
 _atom_site_fract_y
 _atom_site_fract_z
 _atom_site_occupancy
  C  C1  1  0.768613  0.681846  0.499408  1
  C  C2  1  0.231387  0.181846  0.500592  1
  C  C3  1  0.455626  0.795739  0.498444  1
  C  C4  1  0.544374  0.295739  0.501556  1
  C  C5  1  0.260954  0.968963  0.502802  1
  C  C6  1  0.739046  0.468963  0.497198  1
  N  N7  1  0.083614  0.779700  0.519413  1
  N  N8  1  0.916386  0.279700  0.480587  1
