# generated using pymatgen
data_LiVF6
_symmetry_space_group_name_H-M   'P 1'
_cell_length_a   4.96296119
_cell_length_b   4.66782139
_cell_length_c   27.26600100
_cell_angle_alpha   90.00000000
_cell_angle_beta   90.00000000
_cell_angle_gamma   90.00000000
_symmetry_Int_Tables_number   1
_chemical_formula_structural   LiVF6
_chemical_formula_sum   'Li2 V2 F12'
_cell_volume   631.65007954
_cell_formula_units_Z   2
loop_
 _symmetry_equiv_pos_site_id
 _symmetry_equiv_pos_as_xyz
  1  'x, y, z'
loop_
 _atom_site_type_symbol
 _atom_site_label
 _atom_site_symmetry_multiplicity
 _atom_site_fract_x
 _atom_site_fract_y
 _atom_site_fract_z
 _atom_site_occupancy
  Li  Li1  1  0.254498  0.770852  0.515330  1
  Li  Li2  1  0.745502  0.270852  0.484670  1
  V  V3  1  0.240511  0.271326  0.417927  1
  V  V4  1  0.759489  0.771326  0.582073  1
  F  F5  1  0.061066  0.982317  0.572153  1
  F  F6  1  0.087536  0.036531  0.467830  1
  F  F7  1  0.099611  0.057813  0.371880  1
  F  F8  1  0.395235  0.477954  0.471875  1
  F  F9  1  0.383279  0.520873  0.377713  1
  F  F10  1  0.459750  0.556545  0.575929  1
  F  F11  1  0.540250  0.056545  0.424071  1
  F  F12  1  0.616721  0.020873  0.622287  1
  F  F13  1  0.604765  0.977954  0.528125  1
  F  F14  1  0.900389  0.557813  0.628120  1
  F  F15  1  0.912464  0.536531  0.532170  1
  F  F16  1  0.938934  0.482317  0.427847  1
