# generated using pymatgen
data_YbCuPbSe3
_symmetry_space_group_name_H-M   'P 1'
_cell_length_a   3.83803819
_cell_length_b   10.63845898
_cell_length_c   26.72855400
_cell_angle_alpha   90.00000000
_cell_angle_beta   90.00000000
_cell_angle_gamma   90.00000000
_symmetry_Int_Tables_number   1
_chemical_formula_structural   YbCuPbSe3
_chemical_formula_sum   'Yb2 Cu2 Pb2 Se6'
_cell_volume   1091.34855934
_cell_formula_units_Z   2
loop_
 _symmetry_equiv_pos_site_id
 _symmetry_equiv_pos_as_xyz
  1  'x, y, z'
loop_
 _atom_site_type_symbol
 _atom_site_label
 _atom_site_symmetry_multiplicity
 _atom_site_fract_x
 _atom_site_fract_y
 _atom_site_fract_z
 _atom_site_occupancy
  Yb  Yb1  1  0.500000  0.500000  0.500000  1
  Yb  Yb2  1  0.500000  -0.000000  0.500000  1
  Cu  Cu3  1  0.000000  0.250000  0.515232  1
  Cu  Cu4  1  -0.000000  0.750000  0.484768  1
  Pb  Pb5  1  0.500000  0.250000  0.619762  1
  Pb  Pb6  1  0.500000  0.750000  0.380238  1
  Se  Se7  1  0.500000  0.750000  0.541474  1
  Se  Se8  1  0.500000  0.250000  0.458526  1
  Se  Se9  1  -0.000000  0.570085  0.423261  1
  Se  Se10  1  -0.000000  0.070085  0.576739  1
  Se  Se11  1  0.000000  0.429915  0.576739  1
  Se  Se12  1  0.000000  0.929915  0.423261  1
