# generated using pymatgen
data_Li2Fe(PO3)4
_symmetry_space_group_name_H-M   'P 1'
_cell_length_a   5.30072915
_cell_length_b   7.18877155
_cell_length_c   27.56181900
_cell_angle_alpha   90.00000000
_cell_angle_beta   90.00000000
_cell_angle_gamma   70.30100658
_symmetry_Int_Tables_number   1
_chemical_formula_structural   Li2Fe(PO3)4
_chemical_formula_sum   'Li2 Fe1 P4 O12'
_cell_volume   988.79814147
_cell_formula_units_Z   1
loop_
 _symmetry_equiv_pos_site_id
 _symmetry_equiv_pos_as_xyz
  1  'x, y, z'
loop_
 _atom_site_type_symbol
 _atom_site_label
 _atom_site_symmetry_multiplicity
 _atom_site_fract_x
 _atom_site_fract_y
 _atom_site_fract_z
 _atom_site_occupancy
  Li  Li1  1  0.008621  0.498244  0.615275  1
  Li  Li2  1  0.991379  0.501756  0.384725  1
  Fe  Fe3  1  -0.000000  0.000000  0.500000  1
  P  P4  1  0.545348  0.719685  0.551467  1
  P  P5  1  0.459103  0.305280  0.553709  1
  P  P6  1  0.540897  0.694720  0.446291  1
  P  P7  1  0.454652  0.280315  0.448533  1
  O  O8  1  0.753176  0.709745  0.588473  1
  O  O9  1  0.689413  0.690044  0.498386  1
  O  O10  1  0.706137  0.103721  0.450408  1
  O  O11  1  0.450433  0.531235  0.557142  1
  O  O12  1  0.256717  0.831106  0.449546  1
  O  O13  1  0.720134  0.716325  0.406759  1
  O  O14  1  0.279866  0.283675  0.593241  1
  O  O15  1  0.743283  0.168894  0.550454  1
  O  O16  1  0.549567  0.468765  0.442858  1
  O  O17  1  0.293863  0.896279  0.549592  1
  O  O18  1  0.310587  0.309956  0.501614  1
  O  O19  1  0.246824  0.290255  0.411527  1
