# generated using pymatgen
data_MgMn2O5
_symmetry_space_group_name_H-M   'P 1'
_cell_length_a   3.80633640
_cell_length_b   11.18142357
_cell_length_c   24.00941100
_cell_angle_alpha   90.00000000
_cell_angle_beta   90.00000000
_cell_angle_gamma   90.00000000
_symmetry_Int_Tables_number   1
_chemical_formula_structural   MgMn2O5
_chemical_formula_sum   'Mg2 Mn4 O10'
_cell_volume   1021.84676352
_cell_formula_units_Z   2
loop_
 _symmetry_equiv_pos_site_id
 _symmetry_equiv_pos_as_xyz
  1  'x, y, z'
loop_
 _atom_site_type_symbol
 _atom_site_label
 _atom_site_symmetry_multiplicity
 _atom_site_fract_x
 _atom_site_fract_y
 _atom_site_fract_z
 _atom_site_occupancy
  Mg  Mg1  1  -0.000000  0.750010  0.457400  1
  Mg  Mg2  1  0.500000  0.250004  0.542572  1
  Mn  Mn3  1  0.500000  0.903463  0.517488  1
  Mn  Mn4  1  0.000000  0.096778  0.482388  1
  Mn  Mn5  1  0.000000  0.403281  0.482434  1
  Mn  Mn6  1  0.500000  0.596517  0.517538  1
  O  O7  1  0.000000  0.249975  0.521496  1
  O  O8  1  0.500000  0.749971  0.478565  1
  O  O9  1  0.000000  0.923546  0.477368  1
  O  O10  1  0.500000  0.076415  0.522610  1
  O  O11  1  0.000000  0.576432  0.477375  1
  O  O12  1  0.500000  0.423552  0.522610  1
  O  O13  1  0.500000  0.651883  0.584286  1
  O  O14  1  0.000000  0.347751  0.415768  1
  O  O15  1  0.000000  0.152230  0.415799  1
  O  O16  1  0.500000  0.847997  0.584305  1
