# generated using pymatgen
data_NaSnO
_symmetry_space_group_name_H-M   'P 1'
_cell_length_a   3.84410359
_cell_length_b   3.84410359
_cell_length_c   27.97068071
_cell_angle_alpha   90.00000000
_cell_angle_beta   90.00000000
_cell_angle_gamma   90.00000000
_symmetry_Int_Tables_number   1
_chemical_formula_structural   NaSnO
_chemical_formula_sum   'Na2 Sn2 O2'
_cell_volume   413.32645247
_cell_formula_units_Z   2
loop_
 _symmetry_equiv_pos_site_id
 _symmetry_equiv_pos_as_xyz
  1  'x, y, z'
loop_
 _atom_site_type_symbol
 _atom_site_label
 _atom_site_symmetry_multiplicity
 _atom_site_fract_x
 _atom_site_fract_y
 _atom_site_fract_z
 _atom_site_occupancy
  Na  Na1  1  -0.000000  -0.000000  0.500000  1
  Na  Na2  1  0.500000  0.500000  0.500000  1
  Sn  Sn3  1  0.500000  0.000000  0.612884  1
  Sn  Sn4  1  0.000000  0.500000  0.387116  1
  O  O5  1  0.500000  -0.000000  0.541217  1
  O  O6  1  -0.000000  0.500000  0.458783  1
