# generated using pymatgen
data_CaHClO
_symmetry_space_group_name_H-M   'P 1'
_cell_length_a   3.80964082
_cell_length_b   3.80964091
_cell_length_c   23.45138700
_cell_angle_alpha   90.00000000
_cell_angle_beta   90.00000000
_cell_angle_gamma   119.99999924
_symmetry_Int_Tables_number   1
_chemical_formula_structural   CaHClO
_chemical_formula_sum   'Ca1 H1 Cl1 O1'
_cell_volume   294.75911339
_cell_formula_units_Z   1
loop_
 _symmetry_equiv_pos_site_id
 _symmetry_equiv_pos_as_xyz
  1  'x, y, z'
loop_
 _atom_site_type_symbol
 _atom_site_label
 _atom_site_symmetry_multiplicity
 _atom_site_fract_x
 _atom_site_fract_y
 _atom_site_fract_z
 _atom_site_occupancy
  Ca  Ca1  1  0.666667  0.333333  0.515923  1
  H  H2  1  0.000000  0.000000  0.430300  1
  Cl  Cl3  1  0.333333  0.666667  0.582023  1
  O  O4  1  0.000000  0.000000  0.471753  1
