# generated using pymatgen
data_Eu2ZnGe3
_symmetry_space_group_name_H-M   'P 1'
_cell_length_a   4.19845150
_cell_length_b   4.20047638
_cell_length_c   27.97666600
_cell_angle_alpha   90.00000000
_cell_angle_beta   90.00000000
_cell_angle_gamma   119.98404749
_symmetry_Int_Tables_number   1
_chemical_formula_structural   Eu2ZnGe3
_chemical_formula_sum   'Eu2 Zn1 Ge3'
_cell_volume   427.35035244
_cell_formula_units_Z   1
loop_
 _symmetry_equiv_pos_site_id
 _symmetry_equiv_pos_as_xyz
  1  'x, y, z'
loop_
 _atom_site_type_symbol
 _atom_site_label
 _atom_site_symmetry_multiplicity
 _atom_site_fract_x
 _atom_site_fract_y
 _atom_site_fract_z
 _atom_site_occupancy
  Eu  Eu1  1  0.999988  0.999976  0.576637  1
  Eu  Eu2  1  0.999988  0.999976  0.423363  1
  Zn  Zn3  1  0.333399  0.666799  0.500000  1
  Ge  Ge4  1  0.666578  0.333156  0.500000  1
  Ge  Ge5  1  0.333325  0.666649  0.642460  1
  Ge  Ge6  1  0.333325  0.666649  0.357540  1
