# generated using pymatgen
data_Si(HgO2)2
_symmetry_space_group_name_H-M   'P 1'
_cell_length_a   6.37901885
_cell_length_b   6.37901921
_cell_length_c   22.25881688
_cell_angle_alpha   90.00000000
_cell_angle_beta   90.00000000
_cell_angle_gamma   118.27602671
_symmetry_Int_Tables_number   1
_chemical_formula_structural   Si(HgO2)2
_chemical_formula_sum   'Si1 Hg2 O4'
_cell_volume   797.67477042
_cell_formula_units_Z   1
loop_
 _symmetry_equiv_pos_site_id
 _symmetry_equiv_pos_as_xyz
  1  'x, y, z'
loop_
 _atom_site_type_symbol
 _atom_site_label
 _atom_site_symmetry_multiplicity
 _atom_site_fract_x
 _atom_site_fract_y
 _atom_site_fract_z
 _atom_site_occupancy
  Si  Si1  1  0.000000  0.000000  0.500000  1
  Hg  Hg2  1  0.500000  0.000000  0.462040  1
  Hg  Hg3  1  0.000000  0.500000  0.537960  1
  O  O4  1  0.223719  0.058583  0.454153  1
  O  O5  1  0.058583  0.223719  0.545847  1
  O  O6  1  0.941418  0.776282  0.545847  1
  O  O7  1  0.776282  0.941418  0.454153  1
