# generated using pymatgen
data_VO2F
_symmetry_space_group_name_H-M   'P 1'
_cell_length_a   8.83324362
_cell_length_b   12.21046861
_cell_length_c   25.32905200
_cell_angle_alpha   90.00000000
_cell_angle_beta   90.00000000
_cell_angle_gamma   90.00000000
_symmetry_Int_Tables_number   1
_chemical_formula_structural   VO2F
_chemical_formula_sum   'V8 O16 F8'
_cell_volume   2731.94200374
_cell_formula_units_Z   8
loop_
 _symmetry_equiv_pos_site_id
 _symmetry_equiv_pos_as_xyz
  1  'x, y, z'
loop_
 _atom_site_type_symbol
 _atom_site_label
 _atom_site_symmetry_multiplicity
 _atom_site_fract_x
 _atom_site_fract_y
 _atom_site_fract_z
 _atom_site_occupancy
  V  V1  1  0.752054  0.355943  0.449866  1
  V  V2  1  0.604431  0.117378  0.503760  1
  V  V3  1  0.574736  0.617378  0.496240  1
  V  V4  1  0.427112  0.855943  0.550134  1
  V  V5  1  0.252054  0.144057  0.449866  1
  V  V6  1  0.104431  0.382622  0.503760  1
  V  V7  1  0.074736  0.882622  0.496240  1
  V  V8  1  0.927112  0.644057  0.550134  1
  O  O9  1  0.783657  0.620863  0.503039  1
  O  O10  1  0.675411  0.031710  0.462462  1
  O  O11  1  0.352102  0.818820  0.605132  1
  O  O12  1  0.631398  0.251058  0.473950  1
  O  O13  1  0.547769  0.751058  0.526050  1
  O  O14  1  0.827064  0.318820  0.394868  1
  O  O15  1  0.503755  0.531710  0.537538  1
  O  O16  1  0.395509  0.120863  0.496961  1
  O  O17  1  0.283657  0.879137  0.503039  1
  O  O18  1  0.175411  0.468290  0.462462  1
  O  O19  1  0.852102  0.681180  0.605132  1
  O  O20  1  0.131398  0.248942  0.473950  1
  O  O21  1  0.047769  0.748942  0.526050  1
  O  O22  1  0.327064  0.181180  0.394868  1
  O  O23  1  0.003755  0.968290  0.537538  1
  O  O24  1  0.895509  0.379137  0.496961  1
  F  F25  1  0.727861  0.138357  0.558110  1
  F  F26  1  0.644897  0.484045  0.442176  1
  F  F27  1  0.534269  0.984045  0.557824  1
  F  F28  1  0.451305  0.638357  0.441890  1
  F  F29  1  0.227861  0.361643  0.558110  1
  F  F30  1  0.144897  0.015955  0.442176  1
  F  F31  1  0.034269  0.515955  0.557824  1
  F  F32  1  0.951305  0.861643  0.441890  1
