# generated using pymatgen
data_Na2Cl
_symmetry_space_group_name_H-M   'P 1'
_cell_length_a   3.90517452
_cell_length_b   7.13573512
_cell_length_c   23.99314800
_cell_angle_alpha   90.00000000
_cell_angle_beta   90.00000000
_cell_angle_gamma   90.00000000
_symmetry_Int_Tables_number   1
_chemical_formula_structural   Na2Cl
_chemical_formula_sum   'Na4 Cl2'
_cell_volume   668.60004350
_cell_formula_units_Z   2
loop_
 _symmetry_equiv_pos_site_id
 _symmetry_equiv_pos_as_xyz
  1  'x, y, z'
loop_
 _atom_site_type_symbol
 _atom_site_label
 _atom_site_symmetry_multiplicity
 _atom_site_fract_x
 _atom_site_fract_y
 _atom_site_fract_z
 _atom_site_occupancy
  Na  Na1  1  0.750000  0.260213  0.563652  1
  Na  Na2  1  0.250000  0.260213  0.436348  1
  Na  Na3  1  0.250000  0.739788  0.436348  1
  Na  Na4  1  0.750000  0.739788  0.563652  1
  Cl  Cl5  1  0.750000  -0.000000  0.426303  1
  Cl  Cl6  1  0.250000  -0.000000  0.573697  1
