# generated using pymatgen
data_ZrSiO4
_symmetry_space_group_name_H-M   'P 1'
_cell_length_a   4.46624285
_cell_length_b   4.87451513
_cell_length_c   24.37049200
_cell_angle_alpha   90.00000000
_cell_angle_beta   90.00000000
_cell_angle_gamma   86.08716119
_symmetry_Int_Tables_number   1
_chemical_formula_structural   ZrSiO4
_chemical_formula_sum   'Zr2 Si2 O8'
_cell_volume   529.32759647
_cell_formula_units_Z   2
loop_
 _symmetry_equiv_pos_site_id
 _symmetry_equiv_pos_as_xyz
  1  'x, y, z'
loop_
 _atom_site_type_symbol
 _atom_site_label
 _atom_site_symmetry_multiplicity
 _atom_site_fract_x
 _atom_site_fract_y
 _atom_site_fract_z
 _atom_site_occupancy
  Zr  Zr1  1  0.500000  0.250000  0.550729  1
  Zr  Zr2  1  0.500000  0.750000  0.449271  1
  Si  Si3  1  -0.000000  0.750000  0.561766  1
  Si  Si4  1  -0.000000  0.250000  0.438234  1
  O  O5  1  0.749798  0.582861  0.525468  1
  O  O6  1  0.250202  0.917139  0.525468  1
  O  O7  1  0.250202  0.417139  0.474532  1
  O  O8  1  0.749798  0.082861  0.474532  1
  O  O9  1  0.797262  0.995922  0.593338  1
  O  O10  1  0.202738  0.504078  0.593338  1
  O  O11  1  0.202738  0.004078  0.406662  1
  O  O12  1  0.797262  0.495922  0.406662  1
