# generated using pymatgen
data_Li(CoO2)3
_symmetry_space_group_name_H-M   'P 1'
_cell_length_a   4.94306084
_cell_length_b   5.00060175
_cell_length_c   22.49473495
_cell_angle_alpha   90.31956391
_cell_angle_beta   91.62322582
_cell_angle_gamma   118.47359332
_symmetry_Int_Tables_number   1
_chemical_formula_structural   Li(CoO2)3
_chemical_formula_sum   'Li1 Co3 O6'
_cell_volume   488.46053359
_cell_formula_units_Z   1
loop_
 _symmetry_equiv_pos_site_id
 _symmetry_equiv_pos_as_xyz
  1  'x, y, z'
loop_
 _atom_site_type_symbol
 _atom_site_label
 _atom_site_symmetry_multiplicity
 _atom_site_fract_x
 _atom_site_fract_y
 _atom_site_fract_z
 _atom_site_occupancy
  Li  Li1  1  0.683682  0.003571  0.412088  1
  Co  Co2  1  0.671320  0.004294  0.515724  1
  Co  Co3  1  0.340901  0.328775  0.508943  1
  Co  Co4  1  0.012471  0.680545  0.509456  1
  O  O5  1  0.359458  0.989816  0.461125  1
  O  O6  1  0.993871  0.982904  0.554975  1
  O  O7  1  0.982849  0.315166  0.466592  1
  O  O8  1  0.668155  0.322730  0.554121  1
  O  O9  1  0.340082  0.685958  0.551649  1
  O  O10  1  0.681414  0.689888  0.465326  1
