# generated using pymatgen
data_LiSnCl3
_symmetry_space_group_name_H-M   'P 1'
_cell_length_a   6.56707346
_cell_length_b   6.56707299
_cell_length_c   17.76344426
_cell_angle_alpha   90.00000000
_cell_angle_beta   90.00000000
_cell_angle_gamma   60.00000172
_symmetry_Int_Tables_number   1
_chemical_formula_structural   LiSnCl3
_chemical_formula_sum   'Li1 Sn1 Cl3'
_cell_volume   663.43982028
_cell_formula_units_Z   1
loop_
 _symmetry_equiv_pos_site_id
 _symmetry_equiv_pos_as_xyz
  1  'x, y, z'
loop_
 _atom_site_type_symbol
 _atom_site_label
 _atom_site_symmetry_multiplicity
 _atom_site_fract_x
 _atom_site_fract_y
 _atom_site_fract_z
 _atom_site_occupancy
  Li  Li1  1  0.333333  0.333333  0.527006  1
  Sn  Sn2  1  0.000000  0.000000  0.435798  1
  Cl  Cl3  1  0.986075  0.330354  0.512398  1
  Cl  Cl4  1  0.683571  0.986075  0.512398  1
  Cl  Cl5  1  0.330354  0.683571  0.512398  1
