# generated using pymatgen
data_Li3V4O11F
_symmetry_space_group_name_H-M   'P 1'
_cell_length_a   4.97157246
_cell_length_b   4.97673119
_cell_length_c   28.26287700
_cell_angle_alpha   90.00000000
_cell_angle_beta   90.00000000
_cell_angle_gamma   117.25266049
_symmetry_Int_Tables_number   1
_chemical_formula_structural   Li3V4O11F
_chemical_formula_sum   'Li3 V4 O11 F1'
_cell_volume   621.66164530
_cell_formula_units_Z   1
loop_
 _symmetry_equiv_pos_site_id
 _symmetry_equiv_pos_as_xyz
  1  'x, y, z'
loop_
 _atom_site_type_symbol
 _atom_site_label
 _atom_site_symmetry_multiplicity
 _atom_site_fract_x
 _atom_site_fract_y
 _atom_site_fract_z
 _atom_site_occupancy
  Li  Li1  1  0.898613  0.704929  0.505921  1
  Li  Li2  1  0.395144  0.193886  0.353239  1
  Li  Li3  1  0.278716  0.351123  0.511534  1
  V  V4  1  0.904259  0.116658  0.596344  1
  V  V5  1  0.508557  0.647321  0.414134  1
  V  V6  1  0.263578  0.751762  0.592480  1
  V  V7  1  0.852759  0.305642  0.431861  1
  O  O8  1  0.543321  0.023916  0.628823  1
  O  O9  1  0.518632  0.727540  0.554430  1
  O  O10  1  0.557063  0.982005  0.385916  1
  O  O11  1  0.149194  0.001303  0.556403  1
  O  O12  1  0.817840  0.977950  0.460135  1
  O  O13  1  0.577839  0.381883  0.463018  1
  O  O14  1  0.908330  0.377879  0.555039  1
  O  O15  1  0.767354  0.565272  0.382357  1
  O  O16  1  0.172283  0.396201  0.631105  1
  O  O17  1  0.174939  0.592937  0.461716  1
  O  O18  1  0.178768  0.361465  0.385183  1
  F  F19  1  0.916677  0.768695  0.630358  1
