# generated using pymatgen
data_CdInGaS4
_symmetry_space_group_name_H-M   'P 1'
_cell_length_a   4.01378898
_cell_length_b   4.01378893
_cell_length_c   30.15966200
_cell_angle_alpha   90.00000000
_cell_angle_beta   90.00000000
_cell_angle_gamma   120.00000037
_symmetry_Int_Tables_number   1
_chemical_formula_structural   CdInGaS4
_chemical_formula_sum   'Cd1 In1 Ga1 S4'
_cell_volume   420.79073388
_cell_formula_units_Z   1
loop_
 _symmetry_equiv_pos_site_id
 _symmetry_equiv_pos_as_xyz
  1  'x, y, z'
loop_
 _atom_site_type_symbol
 _atom_site_label
 _atom_site_symmetry_multiplicity
 _atom_site_fract_x
 _atom_site_fract_y
 _atom_site_fract_z
 _atom_site_occupancy
  Cd  Cd1  1  0.666667  0.333333  0.488827  1
  In  In2  1  0.000000  0.000000  0.368627  1
  Ga  Ga3  1  -0.000000  -0.000000  0.607032  1
  S  S4  1  0.666667  0.333333  0.571780  1
  S  S5  1  0.333333  0.666667  0.335118  1
  S  S6  1  0.000000  -0.000000  0.452232  1
  S  S7  1  0.000000  -0.000000  0.676383  1
