# generated using pymatgen
data_TiPb9O11
_symmetry_space_group_name_H-M   'P 1'
_cell_length_a   8.96281621
_cell_length_b   8.96341736
_cell_length_c   22.93947800
_cell_angle_alpha   90.00000000
_cell_angle_beta   90.00000000
_cell_angle_gamma   90.00636357
_symmetry_Int_Tables_number   1
_chemical_formula_structural   TiPb9O11
_chemical_formula_sum   'Ti1 Pb9 O11'
_cell_volume   1842.89944155
_cell_formula_units_Z   1
loop_
 _symmetry_equiv_pos_site_id
 _symmetry_equiv_pos_as_xyz
  1  'x, y, z'
loop_
 _atom_site_type_symbol
 _atom_site_label
 _atom_site_symmetry_multiplicity
 _atom_site_fract_x
 _atom_site_fract_y
 _atom_site_fract_z
 _atom_site_occupancy
  Ti  Ti1  1  -0.000000  0.500000  0.496677  1
  Pb  Pb2  1  0.603600  0.304198  0.560570  1
  Pb  Pb3  1  0.308014  0.393659  0.451488  1
  Pb  Pb4  1  0.195811  0.103624  0.560569  1
  Pb  Pb5  1  0.893644  0.191975  0.451495  1
  Pb  Pb6  1  0.804189  0.896376  0.560569  1
  Pb  Pb7  1  0.500000  -0.000000  0.456458  1
  Pb  Pb8  1  0.396400  0.695802  0.560570  1
  Pb  Pb9  1  0.106356  0.808025  0.451495  1
  Pb  Pb10  1  0.691986  0.606341  0.451488  1
  O  O11  1  0.802362  0.404472  0.507239  1
  O  O12  1  0.397763  0.198770  0.508966  1
  O  O13  1  0.095512  0.302382  0.507245  1
  O  O14  1  -0.000000  -0.000000  0.506134  1
  O  O15  1  0.698753  0.102224  0.508990  1
  O  O16  1  0.602237  0.801230  0.508966  1
  O  O17  1  0.301247  0.897776  0.508990  1
  O  O18  1  0.197638  0.595528  0.507239  1
  O  O19  1  -0.000000  0.500000  0.421469  1
  O  O20  1  0.904488  0.697618  0.507245  1
  O  O21  1  0.500000  0.500000  0.506136  1
