# generated using pymatgen
data_Tl2S
_symmetry_space_group_name_H-M   'P 1'
_cell_length_a   12.18332977
_cell_length_b   12.18332932
_cell_length_c   23.56447800
_cell_angle_alpha   90.00000000
_cell_angle_beta   90.00000000
_cell_angle_gamma   59.99999880
_symmetry_Int_Tables_number   1
_chemical_formula_structural   Tl2S
_chemical_formula_sum   'Tl18 S9'
_cell_volume   3029.14758501
_cell_formula_units_Z   9
loop_
 _symmetry_equiv_pos_site_id
 _symmetry_equiv_pos_as_xyz
  1  'x, y, z'
loop_
 _atom_site_type_symbol
 _atom_site_label
 _atom_site_symmetry_multiplicity
 _atom_site_fract_x
 _atom_site_fract_y
 _atom_site_fract_z
 _atom_site_occupancy
  Tl  Tl1  1  0.104610  0.768294  0.579470  1
  Tl  Tl2  1  0.127096  0.104610  0.579470  1
  Tl  Tl3  1  0.768294  0.127096  0.579470  1
  Tl  Tl4  1  0.759199  0.454100  0.570802  1
  Tl  Tl5  1  0.786700  0.759199  0.570802  1
  Tl  Tl6  1  0.454100  0.786700  0.570802  1
  Tl  Tl7  1  0.426297  0.122171  0.570846  1
  Tl  Tl8  1  0.451533  0.426297  0.570846  1
  Tl  Tl9  1  0.122171  0.451533  0.570846  1
  Tl  Tl10  1  0.206009  0.229004  0.422690  1
  Tl  Tl11  1  0.229004  0.564988  0.422690  1
  Tl  Tl12  1  0.564988  0.206009  0.422690  1
  Tl  Tl13  1  0.538457  0.562102  0.424188  1
  Tl  Tl14  1  0.562102  0.899441  0.424188  1
  Tl  Tl15  1  0.899441  0.538457  0.424188  1
  Tl  Tl16  1  0.880430  0.907694  0.431918  1
  Tl  Tl17  1  0.907694  0.211876  0.431918  1
  Tl  Tl18  1  0.211876  0.880430  0.431918  1
  S  S19  1  0.001145  0.668173  0.491632  1
  S  S20  1  0.668173  0.330682  0.491632  1
  S  S21  1  0.330682  0.001145  0.491632  1
  S  S22  1  0.000592  0.334463  0.511236  1
  S  S23  1  0.334463  0.664944  0.511236  1
  S  S24  1  0.664944  0.000592  0.511236  1
  S  S25  1  0.333333  0.333333  0.489426  1
  S  S26  1  0.666667  0.666667  0.490131  1
  S  S27  1  -0.000000  -0.000000  0.512104  1
