# generated using pymatgen
data_ZrI2
_symmetry_space_group_name_H-M   'P 1'
_cell_length_a   3.76320345
_cell_length_b   6.88600280
_cell_length_c   24.58976839
_cell_angle_alpha   90.17077430
_cell_angle_beta   90.00000000
_cell_angle_gamma   90.00000000
_symmetry_Int_Tables_number   1
_chemical_formula_structural   ZrI2
_chemical_formula_sum   'Zr2 I4'
_cell_volume   637.20239865
_cell_formula_units_Z   2
loop_
 _symmetry_equiv_pos_site_id
 _symmetry_equiv_pos_as_xyz
  1  'x, y, z'
loop_
 _atom_site_type_symbol
 _atom_site_label
 _atom_site_symmetry_multiplicity
 _atom_site_fract_x
 _atom_site_fract_y
 _atom_site_fract_z
 _atom_site_occupancy
  Zr  Zr1  1  -0.000000  0.491583  0.502191  1
  Zr  Zr2  1  0.500000  0.115575  0.497802  1
  I  I3  1  0.000000  0.883254  0.567144  1
  I  I4  1  -0.000000  0.221939  0.409659  1
  I  I5  1  0.500000  0.723915  0.432857  1
  I  I6  1  0.500000  0.385161  0.590347  1
