# generated using pymatgen
data_CaH4SO6
_symmetry_space_group_name_H-M   'P 1'
_cell_length_a   5.61784042
_cell_length_b   6.29589512
_cell_length_c   27.34136900
_cell_angle_alpha   90.00000000
_cell_angle_beta   90.00000000
_cell_angle_gamma   113.95064530
_symmetry_Int_Tables_number   1
_chemical_formula_structural   CaH4SO6
_chemical_formula_sum   'Ca2 H8 S2 O12'
_cell_volume   883.77898346
_cell_formula_units_Z   2
loop_
 _symmetry_equiv_pos_site_id
 _symmetry_equiv_pos_as_xyz
  1  'x, y, z'
loop_
 _atom_site_type_symbol
 _atom_site_label
 _atom_site_symmetry_multiplicity
 _atom_site_fract_x
 _atom_site_fract_y
 _atom_site_fract_z
 _atom_site_occupancy
  Ca  Ca1  1  0.750000  0.250000  0.456442  1
  Ca  Ca2  1  0.250000  0.750000  0.543558  1
  H  H3  1  0.411354  0.003306  0.365889  1
  H  H4  1  0.088646  0.496694  0.365889  1
  H  H5  1  0.588646  0.996694  0.634111  1
  H  H6  1  0.911354  0.503306  0.634111  1
  H  H7  1  0.770162  0.999710  0.589202  1
  H  H8  1  0.729838  0.500291  0.589202  1
  H  H9  1  0.229838  0.000291  0.410798  1
  H  H10  1  0.270162  0.499710  0.410798  1
  S  S11  1  0.750000  0.750000  0.456625  1
  S  S12  1  0.250000  0.250000  0.543375  1
  O  O13  1  0.918957  0.949764  0.426216  1
  O  O14  1  0.092736  0.338219  0.512293  1
  O  O15  1  0.907264  0.661781  0.487707  1
  O  O16  1  0.592736  0.838219  0.487707  1
  O  O17  1  0.914057  0.541407  0.599672  1
  O  O18  1  0.585943  0.958593  0.599672  1
  O  O19  1  0.085943  0.458593  0.400328  1
  O  O20  1  0.414057  0.041407  0.400328  1
  O  O21  1  0.081043  0.050237  0.573784  1
  O  O22  1  0.418957  0.449764  0.573784  1
  O  O23  1  0.407264  0.161781  0.512293  1
  O  O24  1  0.581043  0.550236  0.426216  1
