# generated using pymatgen
data_TiS3
_symmetry_space_group_name_H-M   'P 1'
_cell_length_a   3.41204220
_cell_length_b   5.02663484
_cell_length_c   25.69398200
_cell_angle_alpha   90.00000000
_cell_angle_beta   90.00000000
_cell_angle_gamma   90.00000000
_symmetry_Int_Tables_number   1
_chemical_formula_structural   TiS3
_chemical_formula_sum   'Ti2 S6'
_cell_volume   440.67980283
_cell_formula_units_Z   2
loop_
 _symmetry_equiv_pos_site_id
 _symmetry_equiv_pos_as_xyz
  1  'x, y, z'
loop_
 _atom_site_type_symbol
 _atom_site_label
 _atom_site_symmetry_multiplicity
 _atom_site_fract_x
 _atom_site_fract_y
 _atom_site_fract_z
 _atom_site_occupancy
  Ti  Ti1  1  0.250000  0.130147  0.552014  1
  Ti  Ti2  1  0.750000  0.630433  0.447986  1
  S  S3  1  0.250000  0.426819  0.389225  1
  S  S4  1  0.750000  0.333762  0.610775  1
  S  S5  1  0.750000  0.130275  0.482805  1
  S  S6  1  0.250000  0.630306  0.517195  1
  S  S7  1  0.750000  0.926696  0.610843  1
  S  S8  1  0.250000  0.833884  0.389157  1
