# generated using pymatgen
data_GeS
_symmetry_space_group_name_H-M   'P 1'
_cell_length_a   3.65272895
_cell_length_b   4.46212415
_cell_length_c   22.67717700
_cell_angle_alpha   90.00000000
_cell_angle_beta   90.00000000
_cell_angle_gamma   90.00000000
_symmetry_Int_Tables_number   1
_chemical_formula_structural   GeS
_chemical_formula_sum   'Ge2 S2'
_cell_volume   369.61372191
_cell_formula_units_Z   2
loop_
 _symmetry_equiv_pos_site_id
 _symmetry_equiv_pos_as_xyz
  1  'x, y, z'
loop_
 _atom_site_type_symbol
 _atom_site_label
 _atom_site_symmetry_multiplicity
 _atom_site_fract_x
 _atom_site_fract_y
 _atom_site_fract_z
 _atom_site_occupancy
  Ge  Ge1  1  0.500000  0.366557  0.558256  1
  Ge  Ge2  1  -0.000000  0.866557  0.441744  1
  S  S3  1  0.500000  0.500264  0.454296  1
  S  S4  1  0.000000  0.000264  0.545704  1
