# generated using pymatgen
data_NdAl3Cu
_symmetry_space_group_name_H-M   'P 1'
_cell_length_a   4.08808182
_cell_length_b   4.08808182
_cell_length_c   23.64008900
_cell_angle_alpha   90.00000000
_cell_angle_beta   90.00000000
_cell_angle_gamma   90.00000000
_symmetry_Int_Tables_number   1
_chemical_formula_structural   NdAl3Cu
_chemical_formula_sum   'Nd1 Al3 Cu1'
_cell_volume   395.08292994
_cell_formula_units_Z   1
loop_
 _symmetry_equiv_pos_site_id
 _symmetry_equiv_pos_as_xyz
  1  'x, y, z'
loop_
 _atom_site_type_symbol
 _atom_site_label
 _atom_site_symmetry_multiplicity
 _atom_site_fract_x
 _atom_site_fract_y
 _atom_site_fract_z
 _atom_site_occupancy
  Nd  Nd1  1  -0.000000  0.000000  0.541954  1
  Al  Al2  1  0.500000  0.500000  0.597666  1
  Al  Al3  1  0.500000  0.000000  0.434356  1
  Al  Al4  1  0.000000  0.500000  0.434356  1
  Cu  Cu5  1  0.500000  0.500000  0.491667  1
