# generated using pymatgen
data_MgTi
_symmetry_space_group_name_H-M   'P 1'
_cell_length_a   4.24238801
_cell_length_b   4.27553560
_cell_length_c   27.55563000
_cell_angle_alpha   90.00000000
_cell_angle_beta   90.00000000
_cell_angle_gamma   90.00000000
_symmetry_Int_Tables_number   1
_chemical_formula_structural   MgTi
_chemical_formula_sum   'Mg6 Ti6'
_cell_volume   499.81727025
_cell_formula_units_Z   6
loop_
 _symmetry_equiv_pos_site_id
 _symmetry_equiv_pos_as_xyz
  1  'x, y, z'
loop_
 _atom_site_type_symbol
 _atom_site_label
 _atom_site_symmetry_multiplicity
 _atom_site_fract_x
 _atom_site_fract_y
 _atom_site_fract_z
 _atom_site_occupancy
  Mg  Mg1  1  0.000000  0.082853  0.315830  1
  Mg  Mg2  1  -0.000000  0.083665  0.463495  1
  Mg  Mg3  1  0.500000  0.582831  0.316180  1
  Mg  Mg4  1  -0.000000  0.583665  0.536505  1
  Mg  Mg5  1  0.000000  0.582853  0.684170  1
  Mg  Mg6  1  0.500000  0.082831  0.683820  1
  Ti  Ti7  1  -0.000000  0.083496  0.608827  1
  Ti  Ti8  1  0.500000  0.583767  0.457458  1
  Ti  Ti9  1  0.500000  0.583330  0.607944  1
  Ti  Ti10  1  -0.000000  0.583496  0.391173  1
  Ti  Ti11  1  0.500000  0.083330  0.392056  1
  Ti  Ti12  1  0.500000  0.083767  0.542542  1
