# generated using pymatgen
data_ZrHCl
_symmetry_space_group_name_H-M   'P 1'
_cell_length_a   3.34706347
_cell_length_b   3.34706234
_cell_length_c   26.51401400
_cell_angle_alpha   90.00000000
_cell_angle_beta   90.00000000
_cell_angle_gamma   119.99999152
_symmetry_Int_Tables_number   1
_chemical_formula_structural   ZrHCl
_chemical_formula_sum   'Zr2 H2 Cl2'
_cell_volume   257.23727420
_cell_formula_units_Z   2
loop_
 _symmetry_equiv_pos_site_id
 _symmetry_equiv_pos_as_xyz
  1  'x, y, z'
loop_
 _atom_site_type_symbol
 _atom_site_label
 _atom_site_symmetry_multiplicity
 _atom_site_fract_x
 _atom_site_fract_y
 _atom_site_fract_z
 _atom_site_occupancy
  Zr  Zr1  1  0.666667  0.333333  0.556389  1
  Zr  Zr2  1  0.333333  0.666667  0.443611  1
  H  H3  1  0.666667  0.333333  0.478664  1
  H  H4  1  0.333333  0.666667  0.521336  1
  Cl  Cl5  1  0.666667  0.333333  0.376431  1
  Cl  Cl6  1  0.333333  0.666667  0.623569  1
