# generated using pymatgen
data_Nb3Cl7
_symmetry_space_group_name_H-M   'P 1'
_cell_length_a   11.13381064
_cell_length_b   13.40248397
_cell_length_c   25.93167058
_cell_angle_alpha   90.00000000
_cell_angle_beta   90.00000000
_cell_angle_gamma   90.00000000
_symmetry_Int_Tables_number   1
_chemical_formula_structural   Nb3Cl7
_chemical_formula_sum   'Nb12 Cl28'
_cell_volume   3869.54251916
_cell_formula_units_Z   4
loop_
 _symmetry_equiv_pos_site_id
 _symmetry_equiv_pos_as_xyz
  1  'x, y, z'
loop_
 _atom_site_type_symbol
 _atom_site_label
 _atom_site_symmetry_multiplicity
 _atom_site_fract_x
 _atom_site_fract_y
 _atom_site_fract_z
 _atom_site_occupancy
  Nb  Nb1  1  0.590241  0.500000  0.565469  1
  Nb  Nb2  1  0.090241  -0.000000  0.434531  1
  Nb  Nb3  1  0.909759  -0.000000  0.565469  1
  Nb  Nb4  1  0.409759  0.500000  0.434531  1
  Nb  Nb5  1  0.385613  0.610864  0.529116  1
  Nb  Nb6  1  0.885613  0.889136  0.470884  1
  Nb  Nb7  1  0.114387  0.889136  0.529116  1
  Nb  Nb8  1  0.614387  0.610864  0.470884  1
  Nb  Nb9  1  0.614387  0.389136  0.470884  1
  Nb  Nb10  1  0.114387  0.110864  0.529116  1
  Nb  Nb11  1  0.885613  0.110864  0.470884  1
  Nb  Nb12  1  0.385613  0.389136  0.529116  1
  Cl  Cl13  1  0.250000  0.750000  0.569360  1
  Cl  Cl14  1  0.750000  0.750000  0.430640  1
  Cl  Cl15  1  0.750000  0.250000  0.430640  1
  Cl  Cl16  1  0.250000  0.250000  0.569360  1
  Cl  Cl17  1  0.483103  0.627488  0.615887  1
  Cl  Cl18  1  0.983103  0.872512  0.384113  1
  Cl  Cl19  1  0.016897  0.872512  0.615887  1
  Cl  Cl20  1  0.516897  0.627488  0.384113  1
  Cl  Cl21  1  0.516897  0.372512  0.384113  1
  Cl  Cl22  1  0.016897  0.127488  0.615887  1
  Cl  Cl23  1  0.983103  0.127488  0.384113  1
  Cl  Cl24  1  0.483103  0.372512  0.615887  1
  Cl  Cl25  1  0.500000  0.241749  0.500000  1
  Cl  Cl26  1  0.000000  0.258251  0.500000  1
  Cl  Cl27  1  0.500000  0.758251  0.500000  1
  Cl  Cl28  1  0.000000  0.741749  0.500000  1
  Cl  Cl29  1  0.232605  0.500000  0.568047  1
  Cl  Cl30  1  0.732605  -0.000000  0.431953  1
  Cl  Cl31  1  0.267395  -0.000000  0.568047  1
  Cl  Cl32  1  0.767395  0.500000  0.431953  1
  Cl  Cl33  1  0.246610  0.875192  0.451692  1
  Cl  Cl34  1  0.746610  0.624808  0.548308  1
  Cl  Cl35  1  0.253390  0.624808  0.451692  1
  Cl  Cl36  1  0.753390  0.875192  0.548308  1
  Cl  Cl37  1  0.753390  0.124808  0.548308  1
  Cl  Cl38  1  0.253390  0.375192  0.451692  1
  Cl  Cl39  1  0.746610  0.375192  0.548308  1
  Cl  Cl40  1  0.246610  0.124808  0.451692  1
