# generated using pymatgen
data_Cd3P2
_symmetry_space_group_name_H-M   'P 1'
_cell_length_a   9.01641938
_cell_length_b   9.01641938
_cell_length_c   28.72567400
_cell_angle_alpha   90.00000000
_cell_angle_beta   90.00000000
_cell_angle_gamma   90.00000000
_symmetry_Int_Tables_number   1
_chemical_formula_structural   Cd3P2
_chemical_formula_sum   'Cd12 P8'
_cell_volume   2335.27717796
_cell_formula_units_Z   4
loop_
 _symmetry_equiv_pos_site_id
 _symmetry_equiv_pos_as_xyz
  1  'x, y, z'
loop_
 _atom_site_type_symbol
 _atom_site_label
 _atom_site_symmetry_multiplicity
 _atom_site_fract_x
 _atom_site_fract_y
 _atom_site_fract_z
 _atom_site_occupancy
  Cd  Cd1  1  0.500000  0.794778  0.538730  1
  Cd  Cd2  1  0.500000  0.205222  0.538730  1
  Cd  Cd3  1  0.794778  0.500000  0.461270  1
  Cd  Cd4  1  0.205222  0.500000  0.461270  1
  Cd  Cd5  1  0.749421  0.000000  0.632404  1
  Cd  Cd6  1  0.250579  0.000000  0.632404  1
  Cd  Cd7  1  0.000000  0.749421  0.367596  1
  Cd  Cd8  1  0.000000  0.250579  0.367596  1
  Cd  Cd9  1  0.207007  0.000000  0.460211  1
  Cd  Cd10  1  0.792993  0.000000  0.460211  1
  Cd  Cd11  1  0.000000  0.207007  0.539789  1
  Cd  Cd12  1  0.000000  0.792993  0.539789  1
  P  P13  1  0.000000  0.500000  0.396950  1
  P  P14  1  0.500000  0.000000  0.603050  1
  P  P15  1  0.000000  0.000000  0.604017  1
  P  P16  1  0.000000  0.000000  0.395983  1
  P  P17  1  0.748612  0.748612  0.500000  1
  P  P18  1  0.251388  0.251388  0.500000  1
  P  P19  1  0.748612  0.251388  0.500000  1
  P  P20  1  0.251388  0.748612  0.500000  1
