# generated using pymatgen
data_Cu2BrO3
_symmetry_space_group_name_H-M   'P 1'
_cell_length_a   5.32376954
_cell_length_b   5.81826275
_cell_length_c   24.39836300
_cell_angle_alpha   90.00000000
_cell_angle_beta   90.00000000
_cell_angle_gamma   90.00000000
_symmetry_Int_Tables_number   1
_chemical_formula_structural   Cu2BrO3
_chemical_formula_sum   'Cu4 Br2 O6'
_cell_volume   755.74148988
_cell_formula_units_Z   2
loop_
 _symmetry_equiv_pos_site_id
 _symmetry_equiv_pos_as_xyz
  1  'x, y, z'
loop_
 _atom_site_type_symbol
 _atom_site_label
 _atom_site_symmetry_multiplicity
 _atom_site_fract_x
 _atom_site_fract_y
 _atom_site_fract_z
 _atom_site_occupancy
  Cu  Cu1  1  0.826203  0.500000  0.500000  1
  Cu  Cu2  1  0.826203  0.000000  0.500000  1
  Cu  Cu3  1  0.321895  0.250000  0.499426  1
  Cu  Cu4  1  0.330510  0.750000  0.500574  1
  Br  Br5  1  0.648179  0.250000  0.410880  1
  Br  Br6  1  0.004227  0.750000  0.589120  1
  O  O7  1  0.931265  0.250000  0.538901  1
  O  O8  1  0.721140  0.750000  0.461099  1
  O  O9  1  0.503797  0.493097  0.531301  1
  O  O10  1  0.148609  0.993097  0.468699  1
  O  O11  1  0.148609  0.506903  0.468699  1
  O  O12  1  0.503797  0.006903  0.531301  1
