# generated using pymatgen
data_V2O5
_symmetry_space_group_name_H-M   'P 1'
_cell_length_a   3.61517623
_cell_length_b   11.43368440
_cell_length_c   24.28974900
_cell_angle_alpha   90.00000000
_cell_angle_beta   90.00000000
_cell_angle_gamma   90.00000000
_symmetry_Int_Tables_number   1
_chemical_formula_structural   V2O5
_chemical_formula_sum   'V4 O10'
_cell_volume   1004.01152989
_cell_formula_units_Z   2
loop_
 _symmetry_equiv_pos_site_id
 _symmetry_equiv_pos_as_xyz
  1  'x, y, z'
loop_
 _atom_site_type_symbol
 _atom_site_label
 _atom_site_symmetry_multiplicity
 _atom_site_fract_x
 _atom_site_fract_y
 _atom_site_fract_z
 _atom_site_occupancy
  V  V1  1  -0.000000  0.150118  0.522834  1
  V  V2  1  0.500000  0.349880  0.477150  1
  V  V3  1  0.500000  0.650118  0.477166  1
  V  V4  1  -0.000000  0.849880  0.522851  1
  O  O5  1  0.500000  0.181202  0.501783  1
  O  O6  1  -0.000000  0.318789  0.498193  1
  O  O7  1  0.000000  0.681202  0.498217  1
  O  O8  1  0.500000  0.818789  0.501807  1
  O  O9  1  -0.000000  0.854159  0.588808  1
  O  O10  1  0.500000  0.645877  0.411210  1
  O  O11  1  0.500000  0.354159  0.411193  1
  O  O12  1  0.500000  0.499994  0.500838  1
  O  O13  1  -0.000000  0.999994  0.499162  1
  O  O14  1  -0.000000  0.145877  0.588790  1
