# generated using pymatgen
data_Cu3OF5
_symmetry_space_group_name_H-M   'P 1'
_cell_length_a   4.39772990
_cell_length_b   5.26383713
_cell_length_c   27.00374782
_cell_angle_alpha   89.47800441
_cell_angle_beta   90.00000000
_cell_angle_gamma   90.00000000
_symmetry_Int_Tables_number   1
_chemical_formula_structural   Cu3OF5
_chemical_formula_sum   'Cu6 O2 F10'
_cell_volume   625.08203171
_cell_formula_units_Z   2
loop_
 _symmetry_equiv_pos_site_id
 _symmetry_equiv_pos_as_xyz
  1  'x, y, z'
loop_
 _atom_site_type_symbol
 _atom_site_label
 _atom_site_symmetry_multiplicity
 _atom_site_fract_x
 _atom_site_fract_y
 _atom_site_fract_z
 _atom_site_occupancy
  Cu  Cu1  1  0.010735  0.432597  0.395322  1
  Cu  Cu2  1  0.507353  0.948940  0.394929  1
  Cu  Cu3  1  0.007353  0.051060  0.605071  1
  Cu  Cu4  1  0.510735  0.567403  0.604678  1
  Cu  Cu5  1  0.457045  0.258099  0.490410  1
  Cu  Cu6  1  0.957045  0.741901  0.509590  1
  O  O7  1  0.812532  0.771026  0.578889  1
  O  O8  1  0.312532  0.228974  0.421111  1
  F  F9  1  0.818577  0.152110  0.366157  1
  F  F10  1  0.202472  0.345663  0.631314  1
  F  F11  1  0.702472  0.654337  0.368686  1
  F  F12  1  0.318577  0.847890  0.633843  1
  F  F13  1  0.699777  0.270599  0.578650  1
  F  F14  1  0.179700  0.054100  0.526505  1
  F  F15  1  0.311809  0.549828  0.527696  1
  F  F16  1  0.679700  0.945900  0.473495  1
  F  F17  1  0.811809  0.450172  0.472304  1
  F  F18  1  0.199777  0.729401  0.421350  1
