# generated using pymatgen
data_Mg2Fe
_symmetry_space_group_name_H-M   'P 1'
_cell_length_a   2.99038714
_cell_length_b   4.57885485
_cell_length_c   26.37562200
_cell_angle_alpha   90.00000000
_cell_angle_beta   90.00000000
_cell_angle_gamma   90.00000000
_symmetry_Int_Tables_number   1
_chemical_formula_structural   Mg2Fe
_chemical_formula_sum   'Mg4 Fe2'
_cell_volume   361.14948766
_cell_formula_units_Z   2
loop_
 _symmetry_equiv_pos_site_id
 _symmetry_equiv_pos_as_xyz
  1  'x, y, z'
loop_
 _atom_site_type_symbol
 _atom_site_label
 _atom_site_symmetry_multiplicity
 _atom_site_fract_x
 _atom_site_fract_y
 _atom_site_fract_z
 _atom_site_occupancy
  Mg  Mg1  1  0.750000  -0.000000  0.547664  1
  Mg  Mg2  1  0.250000  -0.000000  0.452336  1
  Mg  Mg3  1  0.750000  0.500000  0.620540  1
  Mg  Mg4  1  0.250000  0.500000  0.379460  1
  Fe  Fe5  1  0.750000  0.500000  0.466755  1
  Fe  Fe6  1  0.250000  0.500000  0.533245  1
