# generated using pymatgen
data_Tl2Ge2S5
_symmetry_space_group_name_H-M   'P 1'
_cell_length_a   10.46308020
_cell_length_b   10.46308008
_cell_length_c   25.22480600
_cell_angle_alpha   90.00000000
_cell_angle_beta   90.00000000
_cell_angle_gamma   89.84763364
_symmetry_Int_Tables_number   1
_chemical_formula_structural   Tl2Ge2S5
_chemical_formula_sum   'Tl4 Ge4 S10'
_cell_volume   2761.50225993
_cell_formula_units_Z   2
loop_
 _symmetry_equiv_pos_site_id
 _symmetry_equiv_pos_as_xyz
  1  'x, y, z'
loop_
 _atom_site_type_symbol
 _atom_site_label
 _atom_site_symmetry_multiplicity
 _atom_site_fract_x
 _atom_site_fract_y
 _atom_site_fract_z
 _atom_site_occupancy
  Tl  Tl1  1  0.676483  0.562466  0.444827  1
  Tl  Tl2  1  0.985221  0.871204  0.555173  1
  Tl  Tl3  1  0.373927  0.869823  0.547270  1
  Tl  Tl4  1  0.677864  0.173760  0.452730  1
  Ge  Ge5  1  0.182292  0.536911  0.550739  1
  Ge  Ge6  1  0.010776  0.365395  0.449261  1
  Ge  Ge7  1  0.349108  0.364726  0.447545  1
  Ge  Ge8  1  0.182961  0.198579  0.552455  1
  S  S9  1  0.359127  0.188561  0.500000  1
  S  S10  1  0.003277  0.544411  0.500000  1
  S  S11  1  0.184770  0.709641  0.598838  1
  S  S12  1  0.838046  0.362917  0.401162  1
  S  S13  1  0.520016  0.362173  0.398275  1
  S  S14  1  0.185514  0.027671  0.601725  1
  S  S15  1  0.178408  0.362577  0.393742  1
  S  S16  1  0.185110  0.369279  0.606258  1
  S  S17  1  0.004155  0.189117  0.501765  1
  S  S18  1  0.358570  0.543532  0.498235  1
