# generated using pymatgen
data_LuTe3
_symmetry_space_group_name_H-M   'P 1'
_cell_length_a   3.98343159
_cell_length_b   4.58666399
_cell_length_c   30.30588300
_cell_angle_alpha   90.00000000
_cell_angle_beta   90.00000000
_cell_angle_gamma   90.00000000
_symmetry_Int_Tables_number   1
_chemical_formula_structural   LuTe3
_chemical_formula_sum   'Lu2 Te6'
_cell_volume   553.70855189
_cell_formula_units_Z   2
loop_
 _symmetry_equiv_pos_site_id
 _symmetry_equiv_pos_as_xyz
  1  'x, y, z'
loop_
 _atom_site_type_symbol
 _atom_site_label
 _atom_site_symmetry_multiplicity
 _atom_site_fract_x
 _atom_site_fract_y
 _atom_site_fract_z
 _atom_site_occupancy
  Lu  Lu1  1  -0.000000  0.750000  0.545720  1
  Lu  Lu2  1  -0.000000  0.250000  0.454280  1
  Te  Te3  1  0.000000  0.750000  0.648395  1
  Te  Te4  1  0.000000  0.250000  0.351605  1
  Te  Te5  1  0.500000  0.750000  0.330361  1
  Te  Te6  1  0.500000  0.250000  0.669639  1
  Te  Te7  1  0.500000  0.750000  0.453343  1
  Te  Te8  1  0.500000  0.250000  0.546657  1
