# generated using pymatgen
data_CaP2(H2O3)3
_symmetry_space_group_name_H-M   'P 1'
_cell_length_a   5.66094970
_cell_length_b   6.21767793
_cell_length_c   31.53609000
_cell_angle_alpha   90.00000000
_cell_angle_beta   90.00000000
_cell_angle_gamma   65.81141010
_symmetry_Int_Tables_number   1
_chemical_formula_structural   CaP2(H2O3)3
_chemical_formula_sum   'Ca2 P4 H12 O18'
_cell_volume   1012.54948361
_cell_formula_units_Z   2
loop_
 _symmetry_equiv_pos_site_id
 _symmetry_equiv_pos_as_xyz
  1  'x, y, z'
loop_
 _atom_site_type_symbol
 _atom_site_label
 _atom_site_symmetry_multiplicity
 _atom_site_fract_x
 _atom_site_fract_y
 _atom_site_fract_z
 _atom_site_occupancy
  Ca  Ca1  1  0.691501  0.801287  0.537932  1
  Ca  Ca2  1  0.699063  0.289225  0.462068  1
  P  P3  1  0.193832  0.300136  0.536867  1
  P  P4  1  0.196732  0.790376  0.463133  1
  P  P5  1  0.566307  0.560953  0.638033  1
  P  P6  1  0.824256  0.529559  0.361967  1
  H  H7  1  0.320628  0.550135  0.572102  1
  H  H8  1  0.069936  0.540377  0.427898  1
  H  H9  1  0.071439  0.062734  0.578048  1
  H  H10  1  0.319124  0.027779  0.421952  1
  H  H11  1  0.237224  0.649760  0.680588  1
  H  H12  1  0.153340  0.440752  0.319412  1
  H  H13  1  0.813370  0.618585  0.684420  1
  H  H14  1  0.577193  0.471928  0.315580  1
  H  H15  1  0.755617  0.119165  0.617349  1
  H  H16  1  0.634947  0.971348  0.382651  1
  H  H17  1  0.953081  0.856884  0.614019  1
  H  H18  1  0.437483  0.233628  0.385981  1
  O  O19  1  0.942911  0.381262  0.512349  1
  O  O20  1  0.447653  0.709250  0.487651  1
  O  O21  1  0.449121  0.210168  0.513213  1
  O  O22  1  0.941443  0.880344  0.486787  1
  O  O23  1  0.157678  0.526258  0.564784  1
  O  O24  1  0.232886  0.564254  0.435216  1
  O  O25  1  0.230015  0.088738  0.568116  1
  O  O26  1  0.160549  0.001774  0.431884  1
  O  O27  1  0.558297  0.600865  0.590758  1
  O  O28  1  0.832267  0.489647  0.409242  1
  O  O29  1  0.271239  0.712727  0.654119  1
  O  O30  1  0.119325  0.377786  0.345881  1
  O  O31  1  0.728549  0.697531  0.658457  1
  O  O32  1  0.662015  0.392981  0.341543  1
  O  O33  1  0.662542  0.315407  0.655340  1
  O  O34  1  0.728021  0.775106  0.344660  1
  O  O35  1  0.849219  0.991001  0.595782  1
  O  O36  1  0.541345  0.099511  0.404218  1
