# generated using pymatgen
data_MnCl2
_symmetry_space_group_name_H-M   'P 1'
_cell_length_a   3.68465199
_cell_length_b   3.68465197
_cell_length_c   22.76608800
_cell_angle_alpha   90.00000000
_cell_angle_beta   90.00000000
_cell_angle_gamma   59.99999972
_symmetry_Int_Tables_number   1
_chemical_formula_structural   MnCl2
_chemical_formula_sum   'Mn1 Cl2'
_cell_volume   267.67757520
_cell_formula_units_Z   1
loop_
 _symmetry_equiv_pos_site_id
 _symmetry_equiv_pos_as_xyz
  1  'x, y, z'
loop_
 _atom_site_type_symbol
 _atom_site_label
 _atom_site_symmetry_multiplicity
 _atom_site_fract_x
 _atom_site_fract_y
 _atom_site_fract_z
 _atom_site_occupancy
  Mn  Mn1  1  0.000000  -0.000000  0.500000  1
  Cl  Cl2  1  0.666667  0.666667  0.438849  1
  Cl  Cl3  1  0.333333  0.333333  0.561151  1
