# generated using pymatgen
data_GaH3NF3
_symmetry_space_group_name_H-M   'P 1'
_cell_length_a   5.51635532
_cell_length_b   5.49314781
_cell_length_c   23.39613213
_cell_angle_alpha   90.00000000
_cell_angle_beta   90.00000000
_cell_angle_gamma   90.00000000
_symmetry_Int_Tables_number   1
_chemical_formula_structural   GaH3NF3
_chemical_formula_sum   'Ga2 H6 N2 F6'
_cell_volume   708.95322560
_cell_formula_units_Z   2
loop_
 _symmetry_equiv_pos_site_id
 _symmetry_equiv_pos_as_xyz
  1  'x, y, z'
loop_
 _atom_site_type_symbol
 _atom_site_label
 _atom_site_symmetry_multiplicity
 _atom_site_fract_x
 _atom_site_fract_y
 _atom_site_fract_z
 _atom_site_occupancy
  Ga  Ga1  1  0.750000  0.746330  0.546073  1
  Ga  Ga2  1  0.250000  0.253670  0.546073  1
  H  H3  1  0.750000  0.969637  0.446405  1
  H  H4  1  0.250000  0.030363  0.446405  1
  H  H5  1  0.597214  0.705354  0.438965  1
  H  H6  1  0.402786  0.294646  0.438965  1
  H  H7  1  0.097214  0.294646  0.438965  1
  H  H8  1  0.902786  0.705354  0.438965  1
  N  N9  1  0.750000  0.787268  0.453867  1
  N  N10  1  0.250000  0.212732  0.453867  1
  F  F11  1  0.500000  0.500000  0.522169  1
  F  F12  1  0.000000  0.500000  0.522169  1
  F  F13  1  0.500000  -0.000000  0.533576  1
  F  F14  1  0.000000  -0.000000  0.533576  1
  F  F15  1  0.750000  0.715124  0.619979  1
  F  F16  1  0.250000  0.284876  0.619979  1
