# generated using pymatgen
data_KBiF4
_symmetry_space_group_name_H-M   'P 1'
_cell_length_a   4.29763102
_cell_length_b   4.18679837
_cell_length_c   32.48266800
_cell_angle_alpha   90.00000000
_cell_angle_beta   90.00000000
_cell_angle_gamma   120.87960887
_symmetry_Int_Tables_number   1
_chemical_formula_structural   KBiF4
_chemical_formula_sum   'K2 Bi2 F8'
_cell_volume   501.62072460
_cell_formula_units_Z   2
loop_
 _symmetry_equiv_pos_site_id
 _symmetry_equiv_pos_as_xyz
  1  'x, y, z'
loop_
 _atom_site_type_symbol
 _atom_site_label
 _atom_site_symmetry_multiplicity
 _atom_site_fract_x
 _atom_site_fract_y
 _atom_site_fract_z
 _atom_site_occupancy
  K  K1  1  0.337151  0.674302  0.455453  1
  K  K2  1  0.694269  0.388538  0.541297  1
  Bi  Bi3  1  0.027480  0.054960  0.656974  1
  Bi  Bi4  1  0.941709  0.883419  0.321958  1
  F  F5  1  0.675489  0.350976  0.459331  1
  F  F6  1  0.418001  0.836002  0.661556  1
  F  F7  1  0.354450  0.708902  0.543331  1
  F  F8  1  0.755423  0.510847  0.627990  1
  F  F9  1  0.282668  0.565336  0.330110  1
  F  F10  1  0.904430  0.808860  0.713947  1
  F  F11  1  0.617929  0.235855  0.303928  1
  F  F12  1  0.935441  0.870881  0.384125  1
