# generated using pymatgen
data_BaBi4O7
_symmetry_space_group_name_H-M   'P 1'
_cell_length_a   7.83124212
_cell_length_b   7.83124277
_cell_length_c   25.89418800
_cell_angle_alpha   90.00000000
_cell_angle_beta   90.00000000
_cell_angle_gamma   119.99999725
_symmetry_Int_Tables_number   1
_chemical_formula_structural   BaBi4O7
_chemical_formula_sum   'Ba1 Bi4 O7'
_cell_volume   1375.28998128
_cell_formula_units_Z   1
loop_
 _symmetry_equiv_pos_site_id
 _symmetry_equiv_pos_as_xyz
  1  'x, y, z'
loop_
 _atom_site_type_symbol
 _atom_site_label
 _atom_site_symmetry_multiplicity
 _atom_site_fract_x
 _atom_site_fract_y
 _atom_site_fract_z
 _atom_site_occupancy
  Ba  Ba1  1  0.666667  0.333333  0.387756  1
  Bi  Bi2  1  0.324183  0.162091  0.489398  1
  Bi  Bi3  1  0.837909  0.675817  0.489398  1
  Bi  Bi4  1  0.837909  0.162091  0.489398  1
  Bi  Bi5  1  -0.000000  0.000000  0.610314  1
  O  O6  1  0.274690  0.137345  0.571724  1
  O  O7  1  0.862655  0.725310  0.571724  1
  O  O8  1  0.862655  0.137345  0.571724  1
  O  O9  1  -0.000000  0.000000  0.458648  1
  O  O10  1  0.933671  0.466835  0.453307  1
  O  O11  1  0.533165  0.066329  0.453307  1
  O  O12  1  0.533165  0.466835  0.453307  1
