# generated using pymatgen
data_TlFeSe2
_symmetry_space_group_name_H-M   'P 1'
_cell_length_a   5.22267755
_cell_length_b   6.34930839
_cell_length_c   24.40928600
_cell_angle_alpha   90.00000000
_cell_angle_beta   90.00000000
_cell_angle_gamma   114.28521672
_symmetry_Int_Tables_number   1
_chemical_formula_structural   TlFeSe2
_chemical_formula_sum   'Tl2 Fe2 Se4'
_cell_volume   737.79528180
_cell_formula_units_Z   2
loop_
 _symmetry_equiv_pos_site_id
 _symmetry_equiv_pos_as_xyz
  1  'x, y, z'
loop_
 _atom_site_type_symbol
 _atom_site_label
 _atom_site_symmetry_multiplicity
 _atom_site_fract_x
 _atom_site_fract_y
 _atom_site_fract_z
 _atom_site_occupancy
  Tl  Tl1  1  0.771638  0.543277  0.407073  1
  Tl  Tl2  1  0.228362  0.456723  0.592927  1
  Fe  Fe3  1  0.751386  0.000000  0.500000  1
  Fe  Fe4  1  0.248614  1.000000  0.500000  1
  Se  Se5  1  0.046420  0.092838  0.426641  1
  Se  Se6  1  0.953580  0.907162  0.573359  1
  Se  Se7  1  0.345226  0.690452  0.479222  1
  Se  Se8  1  0.654774  0.309548  0.520778  1
