# generated using pymatgen
data_TiO2
_symmetry_space_group_name_H-M   'P 1'
_cell_length_a   6.25735332
_cell_length_b   6.52127479
_cell_length_c   22.00972600
_cell_angle_alpha   90.00000000
_cell_angle_beta   90.00000000
_cell_angle_gamma   118.67002748
_symmetry_Int_Tables_number   1
_chemical_formula_structural   TiO2
_chemical_formula_sum   'Ti4 O8'
_cell_volume   788.01427992
_cell_formula_units_Z   4
loop_
 _symmetry_equiv_pos_site_id
 _symmetry_equiv_pos_as_xyz
  1  'x, y, z'
loop_
 _atom_site_type_symbol
 _atom_site_label
 _atom_site_symmetry_multiplicity
 _atom_site_fract_x
 _atom_site_fract_y
 _atom_site_fract_z
 _atom_site_occupancy
  Ti  Ti1  1  0.249136  0.498273  0.476101  1
  Ti  Ti2  1  0.749258  -0.000000  0.506945  1
  Ti  Ti3  1  0.750863  0.501727  0.476101  1
  Ti  Ti4  1  0.250742  -0.000000  0.506945  1
  O  O5  1  0.385627  0.268866  0.459118  1
  O  O6  1  -0.000000  -0.000000  0.547983  1
  O  O7  1  0.248854  0.497707  0.550332  1
  O  O8  1  0.614373  0.731134  0.459118  1
  O  O9  1  0.751146  0.502293  0.550332  1
  O  O10  1  0.116761  0.731134  0.459118  1
  O  O11  1  0.883239  0.268866  0.459118  1
  O  O12  1  0.500000  -0.000000  0.548786  1
