# generated using pymatgen
data_CuHO2
_symmetry_space_group_name_H-M   'P 1'
_cell_length_a   2.98475702
_cell_length_b   3.85565013
_cell_length_c   25.52792800
_cell_angle_alpha   90.00000000
_cell_angle_beta   90.00000000
_cell_angle_gamma   90.00000000
_symmetry_Int_Tables_number   1
_chemical_formula_structural   CuHO2
_chemical_formula_sum   'Cu2 H2 O4'
_cell_volume   293.77995962
_cell_formula_units_Z   2
loop_
 _symmetry_equiv_pos_site_id
 _symmetry_equiv_pos_as_xyz
  1  'x, y, z'
loop_
 _atom_site_type_symbol
 _atom_site_label
 _atom_site_symmetry_multiplicity
 _atom_site_fract_x
 _atom_site_fract_y
 _atom_site_fract_z
 _atom_site_occupancy
  Cu  Cu1  1  0.000000  0.458973  0.465408  1
  Cu  Cu2  1  0.500000  0.958973  0.534592  1
  H  H3  1  0.500000  0.255909  0.394004  1
  H  H4  1  -0.000000  0.755909  0.605996  1
  O  O5  1  -0.000000  0.973806  0.586183  1
  O  O6  1  0.500000  0.473806  0.413817  1
  O  O7  1  0.500000  0.460523  0.519575  1
  O  O8  1  -0.000000  0.960523  0.480425  1
