# generated using pymatgen
data_Zn2Co3O8
_symmetry_space_group_name_H-M   'P 1'
_cell_length_a   5.06592505
_cell_length_b   5.77269656
_cell_length_c   24.16777100
_cell_angle_alpha   90.00000000
_cell_angle_beta   90.00000000
_cell_angle_gamma   90.00000000
_symmetry_Int_Tables_number   1
_chemical_formula_structural   Zn2Co3O8
_chemical_formula_sum   'Zn2 Co3 O8'
_cell_volume   706.76345782
_cell_formula_units_Z   1
loop_
 _symmetry_equiv_pos_site_id
 _symmetry_equiv_pos_as_xyz
  1  'x, y, z'
loop_
 _atom_site_type_symbol
 _atom_site_label
 _atom_site_symmetry_multiplicity
 _atom_site_fract_x
 _atom_site_fract_y
 _atom_site_fract_z
 _atom_site_occupancy
  Zn  Zn1  1  0.299545  0.000000  0.561087  1
  Zn  Zn2  1  0.269984  0.000000  0.438912  1
  Co  Co3  1  0.284765  0.500000  0.500000  1
  Co  Co4  1  0.784765  0.250185  0.500000  1
  Co  Co5  1  0.784765  0.749815  0.500000  1
  O  O6  1  0.901418  0.000000  0.454926  1
  O  O7  1  0.668111  0.000000  0.545074  1
  O  O8  1  0.956055  0.500000  0.461393  1
  O  O9  1  0.613474  0.500000  0.538607  1
  O  O10  1  0.116006  0.725596  0.542929  1
  O  O11  1  0.116006  0.274405  0.542929  1
  O  O12  1  0.453523  0.725596  0.457071  1
  O  O13  1  0.453523  0.274405  0.457071  1
