# generated using pymatgen
data_Cr2SiO4
_symmetry_space_group_name_H-M   'P 1'
_cell_length_a   6.39487849
_cell_length_b   6.27852527
_cell_length_c   22.03999200
_cell_angle_alpha   90.00000000
_cell_angle_beta   90.00000000
_cell_angle_gamma   120.61494324
_symmetry_Int_Tables_number   1
_chemical_formula_structural   Cr2SiO4
_chemical_formula_sum   'Cr2 Si1 O4'
_cell_volume   761.56570474
_cell_formula_units_Z   1
loop_
 _symmetry_equiv_pos_site_id
 _symmetry_equiv_pos_as_xyz
  1  'x, y, z'
loop_
 _atom_site_type_symbol
 _atom_site_label
 _atom_site_symmetry_multiplicity
 _atom_site_fract_x
 _atom_site_fract_y
 _atom_site_fract_z
 _atom_site_occupancy
  Cr  Cr1  1  0.500000  0.500000  0.549913  1
  Cr  Cr2  1  -0.000000  0.500000  0.450087  1
  Si  Si3  1  -0.000000  0.000000  0.500000  1
  O  O4  1  0.942722  0.180549  0.458269  1
  O  O5  1  0.762172  0.819451  0.541731  1
  O  O6  1  0.237828  0.180549  0.541731  1
  O  O7  1  0.057278  0.819451  0.458269  1
