# generated using pymatgen
data_TiNiO3
_symmetry_space_group_name_H-M   'P 1'
_cell_length_a   5.25753959
_cell_length_b   5.25753968
_cell_length_c   23.40334823
_cell_angle_alpha   90.00000000
_cell_angle_beta   90.00000000
_cell_angle_gamma   60.00000058
_symmetry_Int_Tables_number   1
_chemical_formula_structural   TiNiO3
_chemical_formula_sum   'Ti2 Ni2 O6'
_cell_volume   560.23951858
_cell_formula_units_Z   2
loop_
 _symmetry_equiv_pos_site_id
 _symmetry_equiv_pos_as_xyz
  1  'x, y, z'
loop_
 _atom_site_type_symbol
 _atom_site_label
 _atom_site_symmetry_multiplicity
 _atom_site_fract_x
 _atom_site_fract_y
 _atom_site_fract_z
 _atom_site_occupancy
  Ti  Ti1  1  0.666667  0.666667  0.517893  1
  Ti  Ti2  1  0.333333  0.333333  0.482107  1
  Ni  Ni3  1  0.333333  0.333333  0.594217  1
  Ni  Ni4  1  0.666667  0.666667  0.405783  1
  O  O5  1  0.612797  0.397360  0.448859  1
  O  O6  1  0.397360  0.989842  0.448859  1
  O  O7  1  0.989842  0.612797  0.448859  1
  O  O8  1  0.387203  0.602640  0.551141  1
  O  O9  1  0.602640  0.010158  0.551141  1
  O  O10  1  0.010158  0.387203  0.551141  1
