# generated using pymatgen
data_CaSb2O5
_symmetry_space_group_name_H-M   'P 1'
_cell_length_a   3.81315441
_cell_length_b   5.09520209
_cell_length_c   24.11001386
_cell_angle_alpha   89.93430987
_cell_angle_beta   89.90185799
_cell_angle_gamma   89.92983010
_symmetry_Int_Tables_number   1
_chemical_formula_structural   CaSb2O5
_chemical_formula_sum   'Ca1 Sb2 O5'
_cell_volume   468.42710709
_cell_formula_units_Z   1
loop_
 _symmetry_equiv_pos_site_id
 _symmetry_equiv_pos_as_xyz
  1  'x, y, z'
loop_
 _atom_site_type_symbol
 _atom_site_label
 _atom_site_symmetry_multiplicity
 _atom_site_fract_x
 _atom_site_fract_y
 _atom_site_fract_z
 _atom_site_occupancy
  Ca  Ca1  1  0.748225  0.898747  0.499859  1
  Sb  Sb2  1  0.249561  0.426999  0.422450  1
  Sb  Sb3  1  0.247713  0.425448  0.577716  1
  O  O4  1  0.247516  0.581828  0.500098  1
  O  O5  1  0.749364  0.550366  0.410797  1
  O  O6  1  0.747322  0.548525  0.589526  1
  O  O7  1  0.249087  0.064225  0.556813  1
  O  O8  1  0.251499  0.064867  0.442741  1
