# generated using pymatgen
data_VZnF4
_symmetry_space_group_name_H-M   'P 1'
_cell_length_a   4.79923062
_cell_length_b   5.73095537
_cell_length_c   26.01294600
_cell_angle_alpha   90.00000000
_cell_angle_beta   90.00000000
_cell_angle_gamma   89.50098131
_symmetry_Int_Tables_number   1
_chemical_formula_structural   VZnF4
_chemical_formula_sum   'V2 Zn2 F8'
_cell_volume   715.43752165
_cell_formula_units_Z   2
loop_
 _symmetry_equiv_pos_site_id
 _symmetry_equiv_pos_as_xyz
  1  'x, y, z'
loop_
 _atom_site_type_symbol
 _atom_site_label
 _atom_site_symmetry_multiplicity
 _atom_site_fract_x
 _atom_site_fract_y
 _atom_site_fract_z
 _atom_site_occupancy
  V  V1  1  0.496624  0.000743  0.500045  1
  V  V2  1  0.996506  0.500796  0.500031  1
  Zn  Zn3  1  0.026268  0.198972  0.395444  1
  Zn  Zn4  1  0.966868  0.802389  0.604542  1
  F  F5  1  0.297995  0.998434  0.435145  1
  F  F6  1  0.231146  0.762043  0.529845  1
  F  F7  1  0.694832  0.003066  0.564903  1
  F  F8  1  0.254957  0.256125  0.525273  1
  F  F9  1  0.762041  0.239413  0.470150  1
  F  F10  1  0.173922  0.488001  0.433301  1
  F  F11  1  0.738057  0.745485  0.474710  1
  F  F12  1  0.818668  0.513688  0.566609  1
