# generated using pymatgen
data_LiV3(TeO6)2
_symmetry_space_group_name_H-M   'P 1'
_cell_length_a   6.17994151
_cell_length_b   10.74371307
_cell_length_c   26.40444800
_cell_angle_alpha   90.00000000
_cell_angle_beta   90.00000000
_cell_angle_gamma   93.21805163
_symmetry_Int_Tables_number   1
_chemical_formula_structural   LiV3(TeO6)2
_chemical_formula_sum   'Li2 V6 Te4 O24'
_cell_volume   1750.37253999
_cell_formula_units_Z   2
loop_
 _symmetry_equiv_pos_site_id
 _symmetry_equiv_pos_as_xyz
  1  'x, y, z'
loop_
 _atom_site_type_symbol
 _atom_site_label
 _atom_site_symmetry_multiplicity
 _atom_site_fract_x
 _atom_site_fract_y
 _atom_site_fract_z
 _atom_site_occupancy
  Li  Li1  1  0.068168  0.830532  0.545862  1
  Li  Li2  1  0.738949  0.063508  0.454138  1
  V  V3  1  0.463815  0.366250  0.551402  1
  V  V4  1  0.354345  0.867992  0.439035  1
  V  V5  1  0.452772  0.026049  0.560965  1
  V  V6  1  0.308262  0.196635  0.443310  1
  V  V7  1  0.343301  0.527790  0.448598  1
  V  V8  1  0.498854  0.697406  0.556690  1
  Te  Te9  1  0.811396  0.359840  0.442371  1
  Te  Te10  1  0.993163  0.156277  0.550485  1
  Te  Te11  1  0.995721  0.534200  0.557629  1
  Te  Te12  1  0.813953  0.737764  0.449515  1
  O  O13  1  0.784298  0.724646  0.522578  1
  O  O14  1  0.364073  0.196595  0.543598  1
  O  O15  1  0.483899  0.535596  0.530269  1
  O  O16  1  0.678326  0.890670  0.438777  1
  O  O17  1  0.128791  0.003370  0.561223  1
  O  O18  1  0.592016  0.366244  0.605036  1
  O  O19  1  0.607015  0.690663  0.612173  1
  O  O20  1  0.215100  0.527797  0.394964  1
  O  O21  1  0.060793  0.544299  0.485741  1
  O  O22  1  0.746323  0.349741  0.514259  1
  O  O23  1  0.512998  0.032629  0.620228  1
  O  O24  1  0.022818  0.169395  0.477422  1
  O  O25  1  0.443043  0.697446  0.456402  1
  O  O26  1  0.200102  0.203377  0.387827  1
  O  O27  1  0.323218  0.358444  0.469731  1
  O  O28  1  0.294118  0.861411  0.379772  1
  O  O29  1  0.191304  0.673145  0.573395  1
  O  O30  1  0.437367  0.860702  0.541637  1
  O  O31  1  0.087093  0.830219  0.469234  1
  O  O32  1  0.720024  0.063821  0.530766  1
  O  O33  1  0.615812  0.220895  0.426604  1
  O  O34  1  0.633277  0.495959  0.427757  1
  O  O35  1  0.173839  0.398081  0.572243  1
  O  O36  1  0.369750  0.033339  0.458363  1
