# generated using pymatgen
data_CaHI
_symmetry_space_group_name_H-M   'P 1'
_cell_length_a   3.99484603
_cell_length_b   3.99484603
_cell_length_c   25.66785364
_cell_angle_alpha   90.00000000
_cell_angle_beta   90.00000000
_cell_angle_gamma   90.00000000
_symmetry_Int_Tables_number   1
_chemical_formula_structural   CaHI
_chemical_formula_sum   'Ca2 H2 I2'
_cell_volume   409.62800928
_cell_formula_units_Z   2
loop_
 _symmetry_equiv_pos_site_id
 _symmetry_equiv_pos_as_xyz
  1  'x, y, z'
loop_
 _atom_site_type_symbol
 _atom_site_label
 _atom_site_symmetry_multiplicity
 _atom_site_fract_x
 _atom_site_fract_y
 _atom_site_fract_z
 _atom_site_occupancy
  Ca  Ca1  1  0.500000  0.000000  0.452440  1
  Ca  Ca2  1  0.000000  0.500000  0.547560  1
  H  H3  1  0.500000  0.500000  0.500000  1
  H  H4  1  0.000000  -0.000000  0.500000  1
  I  I5  1  0.500000  0.000000  0.609672  1
  I  I6  1  -0.000000  0.500000  0.390328  1
