# generated using pymatgen
data_SrP2(H2O3)2
_symmetry_space_group_name_H-M   'P 1'
_cell_length_a   5.79206740
_cell_length_b   7.25274472
_cell_length_c   28.20943549
_cell_angle_alpha   90.74847527
_cell_angle_beta   91.24763449
_cell_angle_gamma   72.42946860
_symmetry_Int_Tables_number   1
_chemical_formula_structural   SrP2(H2O3)2
_chemical_formula_sum   'Sr2 P4 H8 O12'
_cell_volume   1129.45238995
_cell_formula_units_Z   2
loop_
 _symmetry_equiv_pos_site_id
 _symmetry_equiv_pos_as_xyz
  1  'x, y, z'
loop_
 _atom_site_type_symbol
 _atom_site_label
 _atom_site_symmetry_multiplicity
 _atom_site_fract_x
 _atom_site_fract_y
 _atom_site_fract_z
 _atom_site_occupancy
  Sr  Sr1  1  0.806463  0.224337  0.488541  1
  Sr  Sr2  1  0.448169  0.810558  0.511459  1
  P  P3  1  0.933203  0.874046  0.588308  1
  P  P4  1  0.900288  0.703312  0.440184  1
  P  P5  1  0.354344  0.331582  0.559816  1
  P  P6  1  0.321428  0.160849  0.411692  1
  H  H7  1  0.967399  0.517163  0.558048  1
  H  H8  1  0.138753  0.335491  0.350610  1
  H  H9  1  0.776197  0.020368  0.615563  1
  H  H10  1  0.889184  0.696227  0.389986  1
  H  H11  1  0.365448  0.338668  0.610014  1
  H  H12  1  0.478434  0.014527  0.384437  1
  H  H13  1  0.115878  0.699404  0.649390  1
  H  H14  1  0.287233  0.517732  0.441952  1
  O  O15  1  0.098380  0.256839  0.374968  1
  O  O16  1  0.183509  0.654250  0.451707  1
  O  O17  1  0.042506  0.959664  0.549634  1
  O  O18  1  0.772359  0.906438  0.457249  1
  O  O19  1  0.807105  0.724532  0.574423  1
  O  O20  1  0.463136  0.479578  0.540157  1
  O  O21  1  0.791495  0.555317  0.459843  1
  O  O22  1  0.447526  0.310362  0.425577  1
  O  O23  1  0.482272  0.128456  0.542751  1
  O  O24  1  0.212125  0.075230  0.450366  1
  O  O25  1  0.071122  0.380645  0.548293  1
  O  O26  1  0.156251  0.778055  0.625032  1
