# generated using pymatgen
data_MoBr2
_symmetry_space_group_name_H-M   'P 1'
_cell_length_a   11.92942658
_cell_length_b   11.93347639
_cell_length_c   28.91679000
_cell_angle_alpha   90.00000000
_cell_angle_beta   90.00000000
_cell_angle_gamma   90.00000000
_symmetry_Int_Tables_number   1
_chemical_formula_structural   MoBr2
_chemical_formula_sum   'Mo12 Br24'
_cell_volume   4116.58064619
_cell_formula_units_Z   12
loop_
 _symmetry_equiv_pos_site_id
 _symmetry_equiv_pos_as_xyz
  1  'x, y, z'
loop_
 _atom_site_type_symbol
 _atom_site_label
 _atom_site_symmetry_multiplicity
 _atom_site_fract_x
 _atom_site_fract_y
 _atom_site_fract_z
 _atom_site_occupancy
  Mo  Mo1  1  0.068483  0.641017  0.500000  1
  Mo  Mo2  1  0.431517  0.141017  0.500000  1
  Mo  Mo3  1  0.568483  0.858983  0.500000  1
  Mo  Mo4  1  0.931517  0.358983  0.500000  1
  Mo  Mo5  1  0.858942  0.568460  0.500000  1
  Mo  Mo6  1  0.641058  0.068460  0.500000  1
  Mo  Mo7  1  0.358942  0.931540  0.500000  1
  Mo  Mo8  1  0.141058  0.431540  0.500000  1
  Mo  Mo9  1  0.500000  0.000000  0.434681  1
  Mo  Mo10  1  0.000000  0.500000  0.565319  1
  Mo  Mo11  1  0.500000  0.000000  0.565319  1
  Mo  Mo12  1  0.000000  0.500000  0.434681  1
  Br  Br13  1  0.648451  0.648502  0.500000  1
  Br  Br14  1  0.851549  0.148502  0.500000  1
  Br  Br15  1  0.148451  0.851498  0.500000  1
  Br  Br16  1  0.351549  0.351498  0.500000  1
  Br  Br17  1  0.500000  0.000000  0.347113  1
  Br  Br18  1  0.000000  0.500000  0.652887  1
  Br  Br19  1  0.500000  0.000000  0.652887  1
  Br  Br20  1  0.000000  0.500000  0.347113  1
  Br  Br21  1  0.209358  0.572615  0.564132  1
  Br  Br22  1  0.290642  0.072615  0.435868  1
  Br  Br23  1  0.709358  0.927385  0.435868  1
  Br  Br24  1  0.790642  0.427385  0.564132  1
  Br  Br25  1  0.072628  0.290728  0.435860  1
  Br  Br26  1  0.427372  0.790728  0.564140  1
  Br  Br27  1  0.572628  0.209272  0.564140  1
  Br  Br28  1  0.927372  0.709272  0.435860  1
  Br  Br29  1  0.927372  0.709272  0.564140  1
  Br  Br30  1  0.572628  0.209272  0.435860  1
  Br  Br31  1  0.427372  0.790728  0.435860  1
  Br  Br32  1  0.072628  0.290728  0.564140  1
  Br  Br33  1  0.209358  0.572615  0.435868  1
  Br  Br34  1  0.290642  0.072615  0.564132  1
  Br  Br35  1  0.709358  0.927385  0.564132  1
  Br  Br36  1  0.790642  0.427385  0.435868  1
