# generated using pymatgen
data_FeSeCl7
_symmetry_space_group_name_H-M   'P 1'
_cell_length_a   6.26051186
_cell_length_b   8.06182584
_cell_length_c   28.60160700
_cell_angle_alpha   90.00000000
_cell_angle_beta   90.00000000
_cell_angle_gamma   96.73845260
_symmetry_Int_Tables_number   1
_chemical_formula_structural   FeSeCl7
_chemical_formula_sum   'Fe2 Se2 Cl14'
_cell_volume   1433.58427334
_cell_formula_units_Z   2
loop_
 _symmetry_equiv_pos_site_id
 _symmetry_equiv_pos_as_xyz
  1  'x, y, z'
loop_
 _atom_site_type_symbol
 _atom_site_label
 _atom_site_symmetry_multiplicity
 _atom_site_fract_x
 _atom_site_fract_y
 _atom_site_fract_z
 _atom_site_occupancy
  Fe  Fe1  1  0.454196  0.126875  0.567273  1
  Fe  Fe2  1  0.041229  0.592150  0.421781  1
  Se  Se3  1  0.010321  0.515802  0.580475  1
  Se  Se4  1  0.619894  0.985494  0.424920  1
  Cl  Cl5  1  0.920091  0.080199  0.461556  1
  Cl  Cl6  1  0.745221  0.981439  0.353058  1
  Cl  Cl7  1  0.477737  0.221696  0.418647  1
  Cl  Cl8  1  0.034570  0.394148  0.370813  1
  Cl  Cl9  1  0.122987  0.183365  0.583920  1
  Cl  Cl10  1  0.640376  0.351004  0.536077  1
  Cl  Cl11  1  0.415843  0.925922  0.513464  1
  Cl  Cl12  1  0.599343  0.037592  0.629400  1
  Cl  Cl13  1  0.882283  0.753564  0.565633  1
  Cl  Cl14  1  0.854751  0.468848  0.649372  1
  Cl  Cl15  1  0.328151  0.621573  0.607261  1
  Cl  Cl16  1  0.710021  0.648324  0.438358  1
  Cl  Cl17  1  0.223824  0.817866  0.390349  1
  Cl  Cl18  1  0.188484  0.510672  0.487644  1
