# generated using pymatgen
data_Na2Ti2O5
_symmetry_space_group_name_H-M   'P 1'
_cell_length_a   9.31937492
_cell_length_b   10.81057942
_cell_length_c   25.90017400
_cell_angle_alpha   90.00000000
_cell_angle_beta   90.00000000
_cell_angle_gamma   90.00000000
_symmetry_Int_Tables_number   1
_chemical_formula_structural   Na2Ti2O5
_chemical_formula_sum   'Na8 Ti8 O20'
_cell_volume   2609.38665651
_cell_formula_units_Z   4
loop_
 _symmetry_equiv_pos_site_id
 _symmetry_equiv_pos_as_xyz
  1  'x, y, z'
loop_
 _atom_site_type_symbol
 _atom_site_label
 _atom_site_symmetry_multiplicity
 _atom_site_fract_x
 _atom_site_fract_y
 _atom_site_fract_z
 _atom_site_occupancy
  Na  Na1  1  0.023368  0.462248  0.574755  1
  Na  Na2  1  0.523368  0.037752  0.574755  1
  Na  Na3  1  0.728585  0.794008  0.394432  1
  Na  Na4  1  0.228585  0.705992  0.394432  1
  Na  Na5  1  0.228585  0.205992  0.605568  1
  Na  Na6  1  0.728585  0.294008  0.605568  1
  Na  Na7  1  0.523368  0.537752  0.425245  1
  Na  Na8  1  0.023368  0.962248  0.425245  1
  Ti  Ti9  1  0.941010  0.201220  0.525199  1
  Ti  Ti10  1  0.441010  0.298780  0.525199  1
  Ti  Ti11  1  0.756271  0.462230  0.504677  1
  Ti  Ti12  1  0.256271  0.037770  0.504677  1
  Ti  Ti13  1  0.756271  0.962229  0.495323  1
  Ti  Ti14  1  0.256271  0.537771  0.495323  1
  Ti  Ti15  1  0.941010  0.701220  0.474801  1
  Ti  Ti16  1  0.441010  0.798780  0.474801  1
  O  O17  1  0.993823  0.252484  0.587208  1
  O  O18  1  0.493823  0.247516  0.587208  1
  O  O19  1  0.778608  0.483681  0.570422  1
  O  O20  1  0.278608  0.016319  0.570422  1
  O  O21  1  0.774055  0.107583  0.536143  1
  O  O22  1  0.274055  0.392417  0.536143  1
  O  O23  1  0.574884  0.896323  0.509618  1
  O  O24  1  0.074884  0.603677  0.509618  1
  O  O25  1  0.893785  0.843103  0.510626  1
  O  O26  1  0.393785  0.656897  0.510626  1
  O  O27  1  0.893785  0.343103  0.489374  1
  O  O28  1  0.393785  0.156897  0.489374  1
  O  O29  1  0.074884  0.103677  0.490382  1
  O  O30  1  0.574884  0.396323  0.490382  1
  O  O31  1  0.274055  0.892417  0.463857  1
  O  O32  1  0.774055  0.607583  0.463857  1
  O  O33  1  0.278608  0.516319  0.429578  1
  O  O34  1  0.778608  0.983681  0.429578  1
  O  O35  1  0.493823  0.747516  0.412792  1
  O  O36  1  0.993823  0.752484  0.412792  1
