# generated using pymatgen
data_Co2TeCl2O3
_symmetry_space_group_name_H-M   'P 1'
_cell_length_a   5.01239491
_cell_length_b   6.54509872
_cell_length_c   29.15562452
_cell_angle_alpha   90.05376589
_cell_angle_beta   90.93640968
_cell_angle_gamma   89.99341421
_symmetry_Int_Tables_number   1
_chemical_formula_structural   Co2TeCl2O3
_chemical_formula_sum   'Co4 Te2 Cl4 O6'
_cell_volume   956.36931340
_cell_formula_units_Z   2
loop_
 _symmetry_equiv_pos_site_id
 _symmetry_equiv_pos_as_xyz
  1  'x, y, z'
loop_
 _atom_site_type_symbol
 _atom_site_label
 _atom_site_symmetry_multiplicity
 _atom_site_fract_x
 _atom_site_fract_y
 _atom_site_fract_z
 _atom_site_occupancy
  Co  Co1  1  0.685558  0.249770  0.426833  1
  Co  Co2  1  0.314442  0.750230  0.573167  1
  Co  Co3  1  -0.000000  0.500000  0.500000  1
  Co  Co4  1  -0.000000  -0.000000  0.500000  1
  Te  Te5  1  0.472181  0.749576  0.429784  1
  Te  Te6  1  0.527819  0.250424  0.570216  1
  Cl  Cl7  1  0.613215  0.251895  0.352491  1
  Cl  Cl8  1  0.172014  0.249727  0.443244  1
  Cl  Cl9  1  0.827986  0.750273  0.556756  1
  Cl  Cl10  1  0.386785  0.748105  0.647509  1
  O  O11  1  0.307065  0.035730  0.547729  1
  O  O12  1  0.692828  0.535375  0.452371  1
  O  O13  1  0.692935  0.964270  0.452271  1
  O  O14  1  0.209686  0.749953  0.477036  1
  O  O15  1  0.790314  0.250047  0.522964  1
  O  O16  1  0.307172  0.464625  0.547629  1
