# generated using pymatgen
data_MnBiS2Br
_symmetry_space_group_name_H-M   'P 1'
_cell_length_a   3.81594285
_cell_length_b   10.36163379
_cell_length_c   23.08188763
_cell_angle_alpha   90.71301686
_cell_angle_beta   90.00000000
_cell_angle_gamma   90.00000000
_symmetry_Int_Tables_number   1
_chemical_formula_structural   MnBiS2Br
_chemical_formula_sum   'Mn2 Bi2 S4 Br2'
_cell_volume   912.57337495
_cell_formula_units_Z   2
loop_
 _symmetry_equiv_pos_site_id
 _symmetry_equiv_pos_as_xyz
  1  'x, y, z'
loop_
 _atom_site_type_symbol
 _atom_site_label
 _atom_site_symmetry_multiplicity
 _atom_site_fract_x
 _atom_site_fract_y
 _atom_site_fract_z
 _atom_site_occupancy
  Mn  Mn1  1  -0.000000  0.960642  0.500000  1
  Mn  Mn2  1  -0.000000  0.460642  0.500000  1
  Bi  Bi3  1  0.500000  0.748390  0.597932  1
  Bi  Bi4  1  0.500000  0.172893  0.402068  1
  S  S5  1  0.500000  0.985019  0.573560  1
  S  S6  1  0.000000  0.705357  0.521630  1
  S  S7  1  0.500000  0.936264  0.426440  1
  S  S8  1  -0.000000  0.215926  0.478370  1
  Br  Br9  1  0.500000  0.422502  0.578877  1
  Br  Br10  1  0.500000  0.498781  0.421123  1
