# generated using pymatgen
data_CaSn2F6
_symmetry_space_group_name_H-M   'P 1'
_cell_length_a   4.38378332
_cell_length_b   7.19424003
_cell_length_c   27.48122300
_cell_angle_alpha   90.00000000
_cell_angle_beta   90.00000000
_cell_angle_gamma   92.45950428
_symmetry_Int_Tables_number   1
_chemical_formula_structural   CaSn2F6
_chemical_formula_sum   'Ca2 Sn4 F12'
_cell_volume   865.90411543
_cell_formula_units_Z   2
loop_
 _symmetry_equiv_pos_site_id
 _symmetry_equiv_pos_as_xyz
  1  'x, y, z'
loop_
 _atom_site_type_symbol
 _atom_site_label
 _atom_site_symmetry_multiplicity
 _atom_site_fract_x
 _atom_site_fract_y
 _atom_site_fract_z
 _atom_site_occupancy
  Ca  Ca1  1  0.627560  0.758786  0.516005  1
  Ca  Ca2  1  0.372440  0.241214  0.483995  1
  Sn  Sn3  1  0.752666  0.275089  0.596848  1
  Sn  Sn4  1  0.247334  0.724911  0.403152  1
  Sn  Sn5  1  0.872010  0.197160  0.373180  1
  Sn  Sn6  1  0.127990  0.802840  0.626820  1
  F  F7  1  0.908068  0.481595  0.365263  1
  F  F8  1  0.091932  0.518405  0.634737  1
  F  F9  1  0.872754  0.230490  0.449634  1
  F  F10  1  0.127246  0.769510  0.550366  1
  F  F11  1  0.190981  0.247648  0.564174  1
  F  F12  1  0.809019  0.752352  0.435826  1
  F  F13  1  0.326947  0.934851  0.461851  1
  F  F14  1  0.673053  0.065149  0.538149  1
  F  F15  1  0.620634  0.754398  0.606400  1
  F  F16  1  0.379366  0.245602  0.393600  1
  F  F17  1  0.307335  0.550467  0.464254  1
  F  F18  1  0.692665  0.449533  0.535746  1
