# generated using pymatgen
data_Mg2Co3O8
_symmetry_space_group_name_H-M   'P 1'
_cell_length_a   5.10358289
_cell_length_b   5.75647762
_cell_length_c   24.26687800
_cell_angle_alpha   90.00000000
_cell_angle_beta   90.00000000
_cell_angle_gamma   90.00000000
_symmetry_Int_Tables_number   1
_chemical_formula_structural   Mg2Co3O8
_chemical_formula_sum   'Mg2 Co3 O8'
_cell_volume   712.92837472
_cell_formula_units_Z   1
loop_
 _symmetry_equiv_pos_site_id
 _symmetry_equiv_pos_as_xyz
  1  'x, y, z'
loop_
 _atom_site_type_symbol
 _atom_site_label
 _atom_site_symmetry_multiplicity
 _atom_site_fract_x
 _atom_site_fract_y
 _atom_site_fract_z
 _atom_site_occupancy
  Mg  Mg1  1  0.302488  0.000000  0.564521  1
  Mg  Mg2  1  0.254867  0.000000  0.435479  1
  Co  Co3  1  0.278677  0.500000  0.500000  1
  Co  Co4  1  0.778677  0.247203  0.500000  1
  Co  Co5  1  0.778677  0.752797  0.500000  1
  O  O6  1  0.884400  0.000000  0.449614  1
  O  O7  1  0.672954  0.000000  0.550386  1
  O  O8  1  0.962969  0.500000  0.459845  1
  O  O9  1  0.594386  0.500000  0.540155  1
  O  O10  1  0.110215  0.730720  0.540598  1
  O  O11  1  0.110215  0.269281  0.540598  1
  O  O12  1  0.447139  0.730720  0.459402  1
  O  O13  1  0.447139  0.269281  0.459402  1
