# generated using pymatgen
data_Tm2Te5O13
_symmetry_space_group_name_H-M   'P 1'
_cell_length_a   6.90324557
_cell_length_b   8.57528656
_cell_length_c   30.95940000
_cell_angle_alpha   90.00000000
_cell_angle_beta   90.00000000
_cell_angle_gamma   75.07531749
_symmetry_Int_Tables_number   1
_chemical_formula_structural   Tm2Te5O13
_chemical_formula_sum   'Tm4 Te10 O26'
_cell_volume   1770.88699056
_cell_formula_units_Z   2
loop_
 _symmetry_equiv_pos_site_id
 _symmetry_equiv_pos_as_xyz
  1  'x, y, z'
loop_
 _atom_site_type_symbol
 _atom_site_label
 _atom_site_symmetry_multiplicity
 _atom_site_fract_x
 _atom_site_fract_y
 _atom_site_fract_z
 _atom_site_occupancy
  Tm  Tm1  1  0.935754  0.967140  0.437755  1
  Tm  Tm2  1  0.064246  0.032860  0.562245  1
  Tm  Tm3  1  0.477671  0.768962  0.416644  1
  Tm  Tm4  1  0.522329  0.231038  0.583356  1
  Te  Te5  1  0.739400  0.881285  0.324476  1
  Te  Te6  1  0.961176  0.412455  0.602727  1
  Te  Te7  1  0.785674  0.381380  0.491228  1
  Te  Te8  1  0.260600  0.118715  0.675524  1
  Te  Te9  1  0.373569  0.697108  0.622213  1
  Te  Te10  1  0.214326  0.618620  0.508772  1
  Te  Te11  1  0.626431  0.302892  0.377787  1
  Te  Te12  1  0.637418  0.848025  0.535108  1
  Te  Te13  1  0.038824  0.587545  0.397273  1
  Te  Te14  1  0.362582  0.151975  0.464892  1
  O  O15  1  0.835402  0.242765  0.597108  1
  O  O16  1  0.139590  0.504997  0.458208  1
  O  O17  1  0.813603  0.009341  0.368222  1
  O  O18  1  0.558841  0.320030  0.514419  1
  O  O19  1  0.808813  0.723830  0.423602  1
  O  O20  1  0.925697  0.678351  0.334858  1
  O  O21  1  0.456534  0.481682  0.604655  1
  O  O22  1  0.968765  0.173194  0.500409  1
  O  O23  1  0.543466  0.518318  0.395345  1
  O  O24  1  0.617200  0.989766  0.464080  1
  O  O25  1  0.191187  0.276170  0.576398  1
  O  O26  1  0.491906  0.148206  0.649847  1
  O  O27  1  0.441159  0.679970  0.485581  1
  O  O28  1  0.410435  0.233867  0.404922  1
  O  O29  1  0.031235  0.826806  0.499591  1
  O  O30  1  0.382800  0.010234  0.535920  1
  O  O31  1  0.508094  0.851794  0.350153  1
  O  O32  1  0.186397  0.990659  0.631778  1
  O  O33  1  0.860410  0.495003  0.541792  1
  O  O34  1  0.181705  0.762505  0.577741  1
  O  O35  1  0.589565  0.766133  0.595078  1
  O  O36  1  0.246691  0.002389  0.436600  1
  O  O37  1  0.753309  0.997611  0.563400  1
  O  O38  1  0.074303  0.321649  0.665142  1
  O  O39  1  0.164598  0.757235  0.402892  1
  O  O40  1  0.818295  0.237495  0.422259  1
