# generated using pymatgen
data_Ag2IOF
_symmetry_space_group_name_H-M   'P 1'
_cell_length_a   5.82016019
_cell_length_b   4.22033007
_cell_length_c   22.89892100
_cell_angle_alpha   90.00000000
_cell_angle_beta   90.00000000
_cell_angle_gamma   90.00000000
_symmetry_Int_Tables_number   1
_chemical_formula_structural   Ag2IOF
_chemical_formula_sum   'Ag4 I2 O2 F2'
_cell_volume   562.46612925
_cell_formula_units_Z   2
loop_
 _symmetry_equiv_pos_site_id
 _symmetry_equiv_pos_as_xyz
  1  'x, y, z'
loop_
 _atom_site_type_symbol
 _atom_site_label
 _atom_site_symmetry_multiplicity
 _atom_site_fract_x
 _atom_site_fract_y
 _atom_site_fract_z
 _atom_site_occupancy
  Ag  Ag1  1  0.939646  0.458273  0.587460  1
  Ag  Ag2  1  0.060354  0.958273  0.412540  1
  Ag  Ag3  1  0.678128  0.909760  0.504768  1
  Ag  Ag4  1  0.321872  0.409760  0.495232  1
  I  I5  1  0.442141  0.265888  0.380980  1
  I  I6  1  0.557859  0.765888  0.619020  1
  O  O7  1  0.332556  0.447205  0.593660  1
  O  O8  1  0.667444  0.947205  0.406340  1
  F  F9  1  0.063389  0.004014  0.543074  1
  F  F10  1  0.936611  0.504014  0.456926  1
