# generated using pymatgen
data_Li3Sb2(PO4)3
_symmetry_space_group_name_H-M   'P 1'
_cell_length_a   8.82852298
_cell_length_b   8.82852295
_cell_length_c   28.66124600
_cell_angle_alpha   90.00000000
_cell_angle_beta   90.00000000
_cell_angle_gamma   59.99999987
_symmetry_Int_Tables_number   1
_chemical_formula_structural   Li3Sb2(PO4)3
_chemical_formula_sum   'Li6 Sb4 P6 O24'
_cell_volume   1934.64729196
_cell_formula_units_Z   2
loop_
 _symmetry_equiv_pos_site_id
 _symmetry_equiv_pos_as_xyz
  1  'x, y, z'
loop_
 _atom_site_type_symbol
 _atom_site_label
 _atom_site_symmetry_multiplicity
 _atom_site_fract_x
 _atom_site_fract_y
 _atom_site_fract_z
 _atom_site_occupancy
  Li  Li1  1  0.277034  0.018455  0.459852  1
  Li  Li2  1  0.704511  0.277034  0.459852  1
  Li  Li3  1  0.018455  0.704511  0.459852  1
  Li  Li4  1  0.981545  0.295489  0.540148  1
  Li  Li5  1  0.295489  0.722966  0.540148  1
  Li  Li6  1  0.722966  0.981545  0.540148  1
  Sb  Sb7  1  0.333333  0.333333  0.643438  1
  Sb  Sb8  1  0.666667  0.666667  0.356562  1
  Sb  Sb9  1  0.333333  0.333333  0.485510  1
  Sb  Sb10  1  0.666667  0.666667  0.514490  1
  P  P11  1  0.662848  0.973514  0.433571  1
  P  P12  1  0.973514  0.363639  0.433571  1
  P  P13  1  0.363639  0.662848  0.433571  1
  P  P14  1  0.636361  0.337152  0.566429  1
  P  P15  1  0.026486  0.636361  0.566429  1
  P  P16  1  0.337152  0.026486  0.566429  1
  O  O17  1  0.232764  0.159878  0.526392  1
  O  O18  1  0.607359  0.232764  0.526392  1
  O  O19  1  0.159878  0.607359  0.526392  1
  O  O20  1  0.464630  0.077217  0.447411  1
  O  O21  1  0.737014  0.089064  0.423019  1
  O  O22  1  0.674518  0.860267  0.388949  1
  O  O23  1  0.089064  0.173922  0.423019  1
  O  O24  1  0.077217  0.458154  0.447411  1
  O  O25  1  0.458154  0.464630  0.447411  1
  O  O26  1  0.534786  0.325482  0.611051  1
  O  O27  1  0.826078  0.262986  0.576981  1
  O  O28  1  0.139733  0.534786  0.611051  1
  O  O29  1  0.860267  0.465214  0.388949  1
  O  O30  1  0.173922  0.737014  0.423019  1
  O  O31  1  0.465214  0.674518  0.388949  1
  O  O32  1  0.541846  0.535370  0.552589  1
  O  O33  1  0.922783  0.541846  0.552589  1
  O  O34  1  0.910936  0.826078  0.576981  1
  O  O35  1  0.325482  0.139733  0.611051  1
  O  O36  1  0.262986  0.910936  0.576981  1
  O  O37  1  0.535370  0.922783  0.552589  1
  O  O38  1  0.840122  0.392641  0.473608  1
  O  O39  1  0.392641  0.767236  0.473608  1
  O  O40  1  0.767236  0.840122  0.473608  1
