# generated using pymatgen
data_Ni2Te3O8
_symmetry_space_group_name_H-M   'P 1'
_cell_length_a   5.15091634
_cell_length_b   6.64820096
_cell_length_c   25.12258400
_cell_angle_alpha   90.00000000
_cell_angle_beta   90.00000000
_cell_angle_gamma   67.20769681
_symmetry_Int_Tables_number   1
_chemical_formula_structural   Ni2Te3O8
_chemical_formula_sum   'Ni2 Te3 O8'
_cell_volume   793.12916036
_cell_formula_units_Z   1
loop_
 _symmetry_equiv_pos_site_id
 _symmetry_equiv_pos_as_xyz
  1  'x, y, z'
loop_
 _atom_site_type_symbol
 _atom_site_label
 _atom_site_symmetry_multiplicity
 _atom_site_fract_x
 _atom_site_fract_y
 _atom_site_fract_z
 _atom_site_occupancy
  Ni  Ni1  1  0.340431  0.419477  0.455715  1
  Ni  Ni2  1  0.759908  0.580523  0.544285  1
  Te  Te3  1  0.930685  0.000000  0.500000  1
  Te  Te4  1  0.417853  0.349196  0.591644  1
  Te  Te5  1  0.767049  0.650804  0.408356  1
  O  O6  1  0.064349  0.381424  0.399055  1
  O  O7  1  0.445772  0.618576  0.600945  1
  O  O8  1  0.603119  0.583303  0.470380  1
  O  O9  1  0.186422  0.416697  0.529620  1
  O  O10  1  0.626125  0.125740  0.452667  1
  O  O11  1  0.751864  0.874260  0.547333  1
  O  O12  1  0.041113  0.734965  0.444401  1
  O  O13  1  0.776078  0.265035  0.555599  1
