# generated using pymatgen
data_VPS3
_symmetry_space_group_name_H-M   'P 1'
_cell_length_a   5.92913209
_cell_length_b   5.94780126
_cell_length_c   23.10878600
_cell_angle_alpha   90.00000000
_cell_angle_beta   90.00000000
_cell_angle_gamma   60.10377769
_symmetry_Int_Tables_number   1
_chemical_formula_structural   VPS3
_chemical_formula_sum   'V2 P2 S6'
_cell_volume   706.49410687
_cell_formula_units_Z   2
loop_
 _symmetry_equiv_pos_site_id
 _symmetry_equiv_pos_as_xyz
  1  'x, y, z'
loop_
 _atom_site_type_symbol
 _atom_site_label
 _atom_site_symmetry_multiplicity
 _atom_site_fract_x
 _atom_site_fract_y
 _atom_site_fract_z
 _atom_site_occupancy
  V  V1  1  0.331649  0.336701  0.500000  1
  V  V2  1  0.668351  0.663299  0.500000  1
  P  P3  1  0.999777  0.000000  0.452711  1
  P  P4  1  0.000223  -0.000000  0.547289  1
  S  S5  1  0.658116  0.000000  0.432743  1
  S  S6  1  0.341884  -0.000000  0.567257  1
  S  S7  1  0.340932  0.659488  0.432306  1
  S  S8  1  0.000420  0.340512  0.432306  1
  S  S9  1  0.659068  0.340512  0.567694  1
  S  S10  1  0.999580  0.659488  0.567694  1
