# generated using pymatgen
data_KFe2S3
_symmetry_space_group_name_H-M   'P 1'
_cell_length_a   5.15584579
_cell_length_b   8.51757698
_cell_length_c   23.91823100
_cell_angle_alpha   90.00000000
_cell_angle_beta   90.00000000
_cell_angle_gamma   90.00000000
_symmetry_Int_Tables_number   1
_chemical_formula_structural   KFe2S3
_chemical_formula_sum   'K2 Fe4 S6'
_cell_volume   1050.37661066
_cell_formula_units_Z   2
loop_
 _symmetry_equiv_pos_site_id
 _symmetry_equiv_pos_as_xyz
  1  'x, y, z'
loop_
 _atom_site_type_symbol
 _atom_site_label
 _atom_site_symmetry_multiplicity
 _atom_site_fract_x
 _atom_site_fract_y
 _atom_site_fract_z
 _atom_site_occupancy
  K  K1  1  0.250000  0.500000  0.431229  1
  K  K2  1  0.750000  0.500000  0.568771  1
  Fe  Fe3  1  -0.000000  0.148364  0.500000  1
  Fe  Fe4  1  0.500000  0.851636  0.500000  1
  Fe  Fe5  1  0.000000  0.851636  0.500000  1
  Fe  Fe6  1  0.500000  0.148364  0.500000  1
  S  S7  1  0.750000  0.710832  0.449789  1
  S  S8  1  0.250000  0.289168  0.550211  1
  S  S9  1  0.250000  0.710832  0.550211  1
  S  S10  1  0.750000  -0.000000  0.551286  1
  S  S11  1  0.250000  -0.000000  0.448714  1
  S  S12  1  0.750000  0.289168  0.449789  1
