# generated using pymatgen
data_MnTlO3
_symmetry_space_group_name_H-M   'P 1'
_cell_length_a   5.15362202
_cell_length_b   5.15362223
_cell_length_c   24.29124700
_cell_angle_alpha   90.00000000
_cell_angle_beta   90.00000000
_cell_angle_gamma   60.00000140
_symmetry_Int_Tables_number   1
_chemical_formula_structural   MnTlO3
_chemical_formula_sum   'Mn2 Tl2 O6'
_cell_volume   558.73463348
_cell_formula_units_Z   2
loop_
 _symmetry_equiv_pos_site_id
 _symmetry_equiv_pos_as_xyz
  1  'x, y, z'
loop_
 _atom_site_type_symbol
 _atom_site_label
 _atom_site_symmetry_multiplicity
 _atom_site_fract_x
 _atom_site_fract_y
 _atom_site_fract_z
 _atom_site_occupancy
  Mn  Mn1  1  0.333333  0.333333  0.499997  1
  Mn  Mn2  1  0.666667  0.666667  0.500003  1
  Tl  Tl3  1  0.000000  0.000000  0.410938  1
  Tl  Tl4  1  -0.000000  0.000000  0.589062  1
  O  O5  1  0.388919  0.611094  0.456354  1
  O  O6  1  0.611094  -0.000014  0.456354  1
  O  O7  1  -0.000014  0.388919  0.456354  1
  O  O8  1  0.000014  0.611081  0.543646  1
  O  O9  1  0.388906  0.000014  0.543646  1
  O  O10  1  0.611081  0.388906  0.543646  1
