# generated using pymatgen
data_InBr3
_symmetry_space_group_name_H-M   'P 1'
_cell_length_a   6.79193248
_cell_length_b   6.79125907
_cell_length_c   23.17257600
_cell_angle_alpha   90.00000000
_cell_angle_beta   90.00000000
_cell_angle_gamma   59.99671982
_symmetry_Int_Tables_number   1
_chemical_formula_structural   InBr3
_chemical_formula_sum   'In2 Br6'
_cell_volume   925.62323784
_cell_formula_units_Z   2
loop_
 _symmetry_equiv_pos_site_id
 _symmetry_equiv_pos_as_xyz
  1  'x, y, z'
loop_
 _atom_site_type_symbol
 _atom_site_label
 _atom_site_symmetry_multiplicity
 _atom_site_fract_x
 _atom_site_fract_y
 _atom_site_fract_z
 _atom_site_occupancy
  In  In1  1  0.833336  0.333329  0.500000  1
  In  In2  1  0.166664  0.666671  0.500000  1
  Br  Br3  1  0.150581  0.000000  0.431885  1
  Br  Br4  1  0.500433  0.651543  0.567790  1
  Br  Br5  1  0.849419  0.000000  0.568115  1
  Br  Br6  1  0.499567  0.348457  0.432210  1
  Br  Br7  1  0.151976  0.348457  0.567790  1
  Br  Br8  1  0.848024  0.651543  0.432210  1
