# generated using pymatgen
data_CoBr2
_symmetry_space_group_name_H-M   'P 1'
_cell_length_a   3.70174282
_cell_length_b   3.70174360
_cell_length_c   22.85807800
_cell_angle_alpha   90.00000000
_cell_angle_beta   90.00000000
_cell_angle_gamma   120.00000162
_symmetry_Int_Tables_number   1
_chemical_formula_structural   CoBr2
_chemical_formula_sum   'Co1 Br2'
_cell_volume   271.25822279
_cell_formula_units_Z   1
loop_
 _symmetry_equiv_pos_site_id
 _symmetry_equiv_pos_as_xyz
  1  'x, y, z'
loop_
 _atom_site_type_symbol
 _atom_site_label
 _atom_site_symmetry_multiplicity
 _atom_site_fract_x
 _atom_site_fract_y
 _atom_site_fract_z
 _atom_site_occupancy
  Co  Co1  1  0.000000  0.000000  0.500000  1
  Br  Br2  1  0.333333  0.666667  0.437088  1
  Br  Br3  1  0.666667  0.333333  0.562912  1
