# generated using pymatgen
data_ZrTiTe4
_symmetry_space_group_name_H-M   'P 1'
_cell_length_a   3.85399974
_cell_length_b   6.74689530
_cell_length_c   23.63257231
_cell_angle_alpha   89.67120851
_cell_angle_beta   90.00000000
_cell_angle_gamma   90.00000000
_symmetry_Int_Tables_number   1
_chemical_formula_structural   ZrTiTe4
_chemical_formula_sum   'Zr1 Ti1 Te4'
_cell_volume   614.49661653
_cell_formula_units_Z   1
loop_
 _symmetry_equiv_pos_site_id
 _symmetry_equiv_pos_as_xyz
  1  'x, y, z'
loop_
 _atom_site_type_symbol
 _atom_site_label
 _atom_site_symmetry_multiplicity
 _atom_site_fract_x
 _atom_site_fract_y
 _atom_site_fract_z
 _atom_site_occupancy
  Zr  Zr1  1  0.500000  0.500000  0.500000  1
  Ti  Ti2  1  0.000000  0.000000  0.500000  1
  Te  Te3  1  0.500000  0.155577  0.573615  1
  Te  Te4  1  0.500000  0.844423  0.426385  1
  Te  Te5  1  0.000000  0.677108  0.576180  1
  Te  Te6  1  0.000000  0.322892  0.423820  1
