# generated using pymatgen
data_Ag2SeO4
_symmetry_space_group_name_H-M   'P 1'
_cell_length_a   4.77460099
_cell_length_b   6.49834183
_cell_length_c   22.02655300
_cell_angle_alpha   90.00000000
_cell_angle_beta   90.00000000
_cell_angle_gamma   111.55355028
_symmetry_Int_Tables_number   1
_chemical_formula_structural   Ag2SeO4
_chemical_formula_sum   'Ag2 Se1 O4'
_cell_volume   635.62938703
_cell_formula_units_Z   1
loop_
 _symmetry_equiv_pos_site_id
 _symmetry_equiv_pos_as_xyz
  1  'x, y, z'
loop_
 _atom_site_type_symbol
 _atom_site_label
 _atom_site_symmetry_multiplicity
 _atom_site_fract_x
 _atom_site_fract_y
 _atom_site_fract_z
 _atom_site_occupancy
  Ag  Ag1  1  -0.000000  0.500000  0.462510  1
  Ag  Ag2  1  0.500000  0.500000  0.537490  1
  Se  Se3  1  0.500000  -0.000000  0.500000  1
  O  O4  1  0.221139  0.844059  0.454136  1
  O  O5  1  0.377081  0.155941  0.545864  1
  O  O6  1  0.622919  0.844059  0.545864  1
  O  O7  1  0.778861  0.155941  0.454136  1
