# generated using pymatgen
data_Nb2GeTe4
_symmetry_space_group_name_H-M   'P 1'
_cell_length_a   6.55247042
_cell_length_b   7.97767642
_cell_length_c   23.79940700
_cell_angle_alpha   90.00000000
_cell_angle_beta   90.00000000
_cell_angle_gamma   90.00000000
_symmetry_Int_Tables_number   1
_chemical_formula_structural   Nb2GeTe4
_chemical_formula_sum   'Nb4 Ge2 Te8'
_cell_volume   1244.07803437
_cell_formula_units_Z   2
loop_
 _symmetry_equiv_pos_site_id
 _symmetry_equiv_pos_as_xyz
  1  'x, y, z'
loop_
 _atom_site_type_symbol
 _atom_site_label
 _atom_site_symmetry_multiplicity
 _atom_site_fract_x
 _atom_site_fract_y
 _atom_site_fract_z
 _atom_site_occupancy
  Nb  Nb1  1  0.357081  0.033847  0.499986  1
  Nb  Nb2  1  0.642919  0.533847  0.500014  1
  Nb  Nb3  1  0.857086  0.215006  0.499991  1
  Nb  Nb4  1  0.142914  0.715006  0.500009  1
  Ge  Ge5  1  0.249998  0.374437  0.500035  1
  Ge  Ge6  1  0.750002  0.874437  0.499965  1
  Te  Te7  1  0.038364  0.990894  0.419530  1
  Te  Te8  1  0.961636  0.490894  0.580470  1
  Te  Te9  1  0.461677  0.758062  0.580449  1
  Te  Te10  1  0.538323  0.258062  0.419551  1
  Te  Te11  1  0.961685  0.490866  0.419568  1
  Te  Te12  1  0.038315  0.990866  0.580432  1
  Te  Te13  1  0.538429  0.257872  0.580458  1
  Te  Te14  1  0.461571  0.757872  0.419542  1
