# generated using pymatgen
data_LiMnF4
_symmetry_space_group_name_H-M   'P 1'
_cell_length_a   3.92930745
_cell_length_b   8.25825091
_cell_length_c   25.47492400
_cell_angle_alpha   90.00000000
_cell_angle_beta   90.00000000
_cell_angle_gamma   90.00000000
_symmetry_Int_Tables_number   1
_chemical_formula_structural   LiMnF4
_chemical_formula_sum   'Li2 Mn2 F8'
_cell_volume   826.64107772
_cell_formula_units_Z   2
loop_
 _symmetry_equiv_pos_site_id
 _symmetry_equiv_pos_as_xyz
  1  'x, y, z'
loop_
 _atom_site_type_symbol
 _atom_site_label
 _atom_site_symmetry_multiplicity
 _atom_site_fract_x
 _atom_site_fract_y
 _atom_site_fract_z
 _atom_site_occupancy
  Li  Li1  1  0.000000  0.250000  0.423850  1
  Li  Li2  1  0.000000  0.750000  0.576150  1
  Mn  Mn3  1  0.000000  -0.000000  0.500000  1
  Mn  Mn4  1  -0.000000  0.500000  0.500000  1
  F  F5  1  0.500000  0.000000  0.500000  1
  F  F6  1  0.000000  0.972984  0.572667  1
  F  F7  1  0.000000  0.250000  0.499235  1
  F  F8  1  0.000000  0.527016  0.572667  1
  F  F9  1  0.500000  0.500000  0.500000  1
  F  F10  1  0.000000  0.472984  0.427333  1
  F  F11  1  0.000000  0.750000  0.500765  1
  F  F12  1  0.000000  0.027016  0.427333  1
