# generated using pymatgen
data_LaCl
_symmetry_space_group_name_H-M   'P 1'
_cell_length_a   4.03451975
_cell_length_b   4.03451929
_cell_length_c   26.45351500
_cell_angle_alpha   90.00000000
_cell_angle_beta   90.00000000
_cell_angle_gamma   59.99999614
_symmetry_Int_Tables_number   1
_chemical_formula_structural   LaCl
_chemical_formula_sum   'La2 Cl2'
_cell_volume   372.90451666
_cell_formula_units_Z   2
loop_
 _symmetry_equiv_pos_site_id
 _symmetry_equiv_pos_as_xyz
  1  'x, y, z'
loop_
 _atom_site_type_symbol
 _atom_site_label
 _atom_site_symmetry_multiplicity
 _atom_site_fract_x
 _atom_site_fract_y
 _atom_site_fract_z
 _atom_site_occupancy
  La  La1  1  0.333333  0.333333  0.555960  1
  La  La2  1  0.666667  0.666667  0.444040  1
  Cl  Cl3  1  0.000000  0.000000  0.377417  1
  Cl  Cl4  1  0.000000  0.000000  0.622583  1
