# generated using pymatgen
data_RbV4O10
_symmetry_space_group_name_H-M   'P 1'
_cell_length_a   3.67712892
_cell_length_b   6.02669875
_cell_length_c   27.90832400
_cell_angle_alpha   90.00000000
_cell_angle_beta   90.00000000
_cell_angle_gamma   72.23762996
_symmetry_Int_Tables_number   1
_chemical_formula_structural   RbV4O10
_chemical_formula_sum   'Rb1 V4 O10'
_cell_volume   588.99219899
_cell_formula_units_Z   1
loop_
 _symmetry_equiv_pos_site_id
 _symmetry_equiv_pos_as_xyz
  1  'x, y, z'
loop_
 _atom_site_type_symbol
 _atom_site_label
 _atom_site_symmetry_multiplicity
 _atom_site_fract_x
 _atom_site_fract_y
 _atom_site_fract_z
 _atom_site_occupancy
  Rb  Rb1  1  0.500000  0.000000  0.500000  1
  V  V2  1  0.854941  0.290119  0.619408  1
  V  V3  1  0.851008  0.297984  0.380342  1
  V  V4  1  0.148992  0.702016  0.619658  1
  V  V5  1  0.145059  0.709881  0.380592  1
  O  O6  1  0.999111  0.001777  0.356670  1
  O  O7  1  0.870177  0.259646  0.561124  1
  O  O8  1  0.867236  0.265528  0.438560  1
  O  O9  1  0.321109  0.357782  0.633576  1
  O  O10  1  0.317820  0.364360  0.365405  1
  O  O11  1  0.682180  0.635640  0.634595  1
  O  O12  1  0.678891  0.642218  0.366424  1
  O  O13  1  0.132764  0.734472  0.561440  1
  O  O14  1  0.129823  0.740354  0.438876  1
  O  O15  1  0.000889  0.998223  0.643330  1
