# generated using pymatgen
data_LiCdPO4
_symmetry_space_group_name_H-M   'P 1'
_cell_length_a   4.94278808
_cell_length_b   6.40159668
_cell_length_c   24.73152000
_cell_angle_alpha   90.00000000
_cell_angle_beta   90.00000000
_cell_angle_gamma   90.00000000
_symmetry_Int_Tables_number   1
_chemical_formula_structural   LiCdPO4
_chemical_formula_sum   'Li2 Cd2 P2 O8'
_cell_volume   782.54822085
_cell_formula_units_Z   2
loop_
 _symmetry_equiv_pos_site_id
 _symmetry_equiv_pos_as_xyz
  1  'x, y, z'
loop_
 _atom_site_type_symbol
 _atom_site_label
 _atom_site_symmetry_multiplicity
 _atom_site_fract_x
 _atom_site_fract_y
 _atom_site_fract_z
 _atom_site_occupancy
  Li  Li1  1  0.000000  0.500000  0.500000  1
  Li  Li2  1  0.000000  0.000000  0.500000  1
  Cd  Cd3  1  0.569040  0.750000  0.432989  1
  Cd  Cd4  1  0.430960  0.250000  0.567011  1
  P  P5  1  0.381016  0.750000  0.545832  1
  P  P6  1  0.618984  0.250000  0.454168  1
  O  O7  1  0.717523  0.054920  0.422535  1
  O  O8  1  0.282477  0.554920  0.577465  1
  O  O9  1  0.317244  0.250000  0.469525  1
  O  O10  1  0.682756  0.750000  0.530475  1
  O  O11  1  0.781505  0.250000  0.510195  1
  O  O12  1  0.218495  0.750000  0.489805  1
  O  O13  1  0.717523  0.445080  0.422535  1
  O  O14  1  0.282477  0.945080  0.577465  1
