# generated using pymatgen
data_KAsO2
_symmetry_space_group_name_H-M   'P 1'
_cell_length_a   5.46421986
_cell_length_b   7.39141844
_cell_length_c   25.20660700
_cell_angle_alpha   90.00000000
_cell_angle_beta   90.00000000
_cell_angle_gamma   90.00000000
_symmetry_Int_Tables_number   1
_chemical_formula_structural   KAsO2
_chemical_formula_sum   'K4 As4 O8'
_cell_volume   1018.05289865
_cell_formula_units_Z   4
loop_
 _symmetry_equiv_pos_site_id
 _symmetry_equiv_pos_as_xyz
  1  'x, y, z'
loop_
 _atom_site_type_symbol
 _atom_site_label
 _atom_site_symmetry_multiplicity
 _atom_site_fract_x
 _atom_site_fract_y
 _atom_site_fract_z
 _atom_site_occupancy
  K  K1  1  0.750000  0.409602  0.537804  1
  K  K2  1  0.250000  0.090398  0.537804  1
  K  K3  1  0.250000  0.590398  0.462196  1
  K  K4  1  0.750000  0.909602  0.462196  1
  As  As5  1  0.750000  0.377470  0.397146  1
  As  As6  1  0.250000  0.622530  0.602854  1
  As  As7  1  0.250000  0.122530  0.397146  1
  As  As8  1  0.750000  0.877470  0.602854  1
  O  O9  1  0.000000  0.750000  0.567455  1
  O  O10  1  0.500000  0.250000  0.432545  1
  O  O11  1  -0.000000  0.250000  0.432545  1
  O  O12  1  0.500000  0.750000  0.567455  1
  O  O13  1  0.750000  0.564055  0.437830  1
  O  O14  1  0.750000  0.064055  0.562170  1
  O  O15  1  0.250000  0.935945  0.437830  1
  O  O16  1  0.250000  0.435945  0.562170  1
