# generated using pymatgen
data_Ti3H2O7
_symmetry_space_group_name_H-M   'P 1'
_cell_length_a   3.78322194
_cell_length_b   9.33900690
_cell_length_c   27.83881831
_cell_angle_alpha   89.80728211
_cell_angle_beta   90.00000000
_cell_angle_gamma   90.00000000
_symmetry_Int_Tables_number   1
_chemical_formula_structural   Ti3H2O7
_chemical_formula_sum   'Ti6 H4 O14'
_cell_volume   983.58264222
_cell_formula_units_Z   2
loop_
 _symmetry_equiv_pos_site_id
 _symmetry_equiv_pos_as_xyz
  1  'x, y, z'
loop_
 _atom_site_type_symbol
 _atom_site_label
 _atom_site_symmetry_multiplicity
 _atom_site_fract_x
 _atom_site_fract_y
 _atom_site_fract_z
 _atom_site_occupancy
  Ti  Ti1  1  0.000000  0.875048  0.490490  1
  Ti  Ti2  1  0.500000  0.313041  0.514606  1
  Ti  Ti3  1  -0.000000  0.534752  0.460611  1
  Ti  Ti4  1  0.500000  0.661194  0.547648  1
  Ti  Ti5  1  -0.000000  0.227113  0.426553  1
  Ti  Ti6  1  0.500000  0.976789  0.592692  1
  H  H7  1  0.000000  0.760990  0.400867  1
  H  H8  1  0.500000  0.423867  0.603188  1
  H  H9  1  0.000000  0.046574  0.358331  1
  H  H10  1  0.000000  0.076230  0.550386  1
  O  O11  1  0.000000  0.035999  0.459476  1
  O  O12  1  0.500000  0.161149  0.550701  1
  O  O13  1  0.000000  0.735753  0.434759  1
  O  O14  1  0.500000  0.457467  0.569890  1
  O  O15  1  0.000000  0.428649  0.408285  1
  O  O16  1  0.500000  0.767183  0.599297  1
  O  O17  1  0.000000  0.146884  0.367439  1
  O  O18  1  0.500000  0.048696  0.646168  1
  O  O19  1  0.000000  0.975030  0.561150  1
  O  O20  1  0.500000  0.238466  0.446838  1
  O  O21  1  0.000000  0.664289  0.527499  1
  O  O22  1  0.500000  0.531756  0.479112  1
  O  O23  1  0.000000  0.344379  0.499193  1
  O  O24  1  0.500000  0.841968  0.504822  1
