# generated using pymatgen
data_BiSbO3
_symmetry_space_group_name_H-M   'P 1'
_cell_length_a   6.00567802
_cell_length_b   6.00675432
_cell_length_c   25.23304200
_cell_angle_alpha   90.00000000
_cell_angle_beta   90.00000000
_cell_angle_gamma   119.88829304
_symmetry_Int_Tables_number   1
_chemical_formula_structural   BiSbO3
_chemical_formula_sum   'Bi2 Sb2 O6'
_cell_volume   789.20515472
_cell_formula_units_Z   2
loop_
 _symmetry_equiv_pos_site_id
 _symmetry_equiv_pos_as_xyz
  1  'x, y, z'
loop_
 _atom_site_type_symbol
 _atom_site_label
 _atom_site_symmetry_multiplicity
 _atom_site_fract_x
 _atom_site_fract_y
 _atom_site_fract_z
 _atom_site_occupancy
  Bi  Bi1  1  0.666915  0.833036  0.473336  1
  Bi  Bi2  1  0.333085  0.166964  0.526664  1
  Sb  Sb3  1  0.666771  0.833768  0.606741  1
  Sb  Sb4  1  0.333229  0.166232  0.393259  1
  O  O5  1  0.389585  0.927289  0.437662  1
  O  O6  1  0.571498  0.461559  0.437522  1
  O  O7  1  0.037065  0.109726  0.437262  1
  O  O8  1  0.962935  0.890274  0.562738  1
  O  O9  1  0.428502  0.538441  0.562478  1
  O  O10  1  0.610415  0.072711  0.562338  1
