# generated using pymatgen
data_Nb2CS2
_symmetry_space_group_name_H-M   'P 1'
_cell_length_a   3.29617795
_cell_length_b   3.29617847
_cell_length_c   25.71367200
_cell_angle_alpha   90.00000000
_cell_angle_beta   90.00000000
_cell_angle_gamma   60.00000514
_symmetry_Int_Tables_number   1
_chemical_formula_structural   Nb2CS2
_chemical_formula_sum   'Nb2 C1 S2'
_cell_volume   241.94470525
_cell_formula_units_Z   1
loop_
 _symmetry_equiv_pos_site_id
 _symmetry_equiv_pos_as_xyz
  1  'x, y, z'
loop_
 _atom_site_type_symbol
 _atom_site_label
 _atom_site_symmetry_multiplicity
 _atom_site_fract_x
 _atom_site_fract_y
 _atom_site_fract_z
 _atom_site_occupancy
  Nb  Nb1  1  0.666667  0.666667  0.546812  1
  Nb  Nb2  1  0.333333  0.333333  0.453188  1
  C  C3  1  0.000000  0.000000  0.500000  1
  S  S4  1  0.666667  0.666667  0.389000  1
  S  S5  1  0.333333  0.333333  0.611000  1
