# generated using pymatgen
data_TlInS2
_symmetry_space_group_name_H-M   'P 1'
_cell_length_a   3.95093912
_cell_length_b   5.02259303
_cell_length_c   23.42412200
_cell_angle_alpha   90.00000000
_cell_angle_beta   90.00000000
_cell_angle_gamma   104.43462132
_symmetry_Int_Tables_number   1
_chemical_formula_structural   TlInS2
_chemical_formula_sum   'Tl1 In1 S2'
_cell_volume   450.15398529
_cell_formula_units_Z   1
loop_
 _symmetry_equiv_pos_site_id
 _symmetry_equiv_pos_as_xyz
  1  'x, y, z'
loop_
 _atom_site_type_symbol
 _atom_site_label
 _atom_site_symmetry_multiplicity
 _atom_site_fract_x
 _atom_site_fract_y
 _atom_site_fract_z
 _atom_site_occupancy
  Tl  Tl1  1  0.326513  0.431913  0.575932  1
  In  In2  1  0.310436  0.828371  0.424322  1
  S  S3  1  0.850926  0.896779  0.512362  1
  S  S4  1  0.780370  0.285446  0.487384  1
