# generated using pymatgen
data_BiTe
_symmetry_space_group_name_H-M   'P 1'
_cell_length_a   4.46766832
_cell_length_b   4.46766886
_cell_length_c   61.92935600
_cell_angle_alpha   90.00000000
_cell_angle_beta   90.00000000
_cell_angle_gamma   120.00000344
_symmetry_Int_Tables_number   1
_chemical_formula_structural   BiTe
_chemical_formula_sum   'Bi6 Te6'
_cell_volume   1070.50593559
_cell_formula_units_Z   6
loop_
 _symmetry_equiv_pos_site_id
 _symmetry_equiv_pos_as_xyz
  1  'x, y, z'
loop_
 _atom_site_type_symbol
 _atom_site_label
 _atom_site_symmetry_multiplicity
 _atom_site_fract_x
 _atom_site_fract_y
 _atom_site_fract_z
 _atom_site_occupancy
  Bi  Bi1  1  0.333333  0.666667  0.584123  1
  Bi  Bi2  1  0.666667  0.333333  0.415877  1
  Bi  Bi3  1  0.000000  -0.000000  0.350187  1
  Bi  Bi4  1  0.000000  -0.000000  0.649813  1
  Bi  Bi5  1  0.666667  0.333333  0.513671  1
  Bi  Bi6  1  0.333333  0.666667  0.486329  1
  Te  Te7  1  0.333333  0.666667  0.677249  1
  Te  Te8  1  0.666667  0.333333  0.322751  1
  Te  Te9  1  0.000000  -0.000000  0.444056  1
  Te  Te10  1  0.000000  -0.000000  0.555944  1
  Te  Te11  1  0.666667  0.333333  0.616689  1
  Te  Te12  1  0.333333  0.666667  0.383311  1
