# generated using pymatgen
data_NaTm(SO4)2
_symmetry_space_group_name_H-M   'P 1'
_cell_length_a   4.78618355
_cell_length_b   6.71735318
_cell_length_c   29.95544807
_cell_angle_alpha   90.00000000
_cell_angle_beta   89.27825708
_cell_angle_gamma   90.00000000
_symmetry_Int_Tables_number   1
_chemical_formula_structural   NaTm(SO4)2
_chemical_formula_sum   'Na2 Tm2 S4 O16'
_cell_volume   963.00578283
_cell_formula_units_Z   2
loop_
 _symmetry_equiv_pos_site_id
 _symmetry_equiv_pos_as_xyz
  1  'x, y, z'
loop_
 _atom_site_type_symbol
 _atom_site_label
 _atom_site_symmetry_multiplicity
 _atom_site_fract_x
 _atom_site_fract_y
 _atom_site_fract_z
 _atom_site_occupancy
  Na  Na1  1  0.497480  0.250000  0.392920  1
  Na  Na2  1  0.502520  0.750000  0.607080  1
  Tm  Tm3  1  0.679546  0.750000  0.441896  1
  Tm  Tm4  1  0.320454  0.250000  0.558104  1
  S  S5  1  0.883172  0.250000  0.476356  1
  S  S6  1  0.116828  0.750000  0.523644  1
  S  S7  1  0.262157  0.750000  0.370557  1
  S  S8  1  0.737843  0.250000  0.629443  1
  O  O9  1  0.293148  0.750000  0.323309  1
  O  O10  1  0.706852  0.250000  0.676691  1
  O  O11  1  0.964221  0.750000  0.385510  1
  O  O12  1  0.035779  0.250000  0.614490  1
  O  O13  1  0.205977  0.925836  0.549551  1
  O  O14  1  0.794023  0.425836  0.450449  1
  O  O15  1  0.794023  0.074164  0.450449  1
  O  O16  1  0.205977  0.574164  0.549551  1
  O  O17  1  0.190144  0.250000  0.482276  1
  O  O18  1  0.809856  0.750000  0.517724  1
  O  O19  1  0.752320  0.250000  0.521523  1
  O  O20  1  0.247680  0.750000  0.478477  1
  O  O21  1  0.596948  0.424548  0.606532  1
  O  O22  1  0.403052  0.924548  0.393468  1
  O  O23  1  0.403052  0.575452  0.393468  1
  O  O24  1  0.596948  0.075452  0.606532  1
