# generated using pymatgen
data_NaClO2
_symmetry_space_group_name_H-M   'P 1'
_cell_length_a   6.46514850
_cell_length_b   6.70835754
_cell_length_c   21.54291600
_cell_angle_alpha   90.00000000
_cell_angle_beta   90.00000000
_cell_angle_gamma   115.80711944
_symmetry_Int_Tables_number   1
_chemical_formula_structural   NaClO2
_chemical_formula_sum   'Na2 Cl2 O4'
_cell_volume   841.14217323
_cell_formula_units_Z   2
loop_
 _symmetry_equiv_pos_site_id
 _symmetry_equiv_pos_as_xyz
  1  'x, y, z'
loop_
 _atom_site_type_symbol
 _atom_site_label
 _atom_site_symmetry_multiplicity
 _atom_site_fract_x
 _atom_site_fract_y
 _atom_site_fract_z
 _atom_site_occupancy
  Na  Na1  1  0.750000  0.750000  0.510368  1
  Na  Na2  1  0.250000  0.250000  0.489632  1
  Cl  Cl3  1  0.250000  0.750000  0.469935  1
  Cl  Cl4  1  0.750000  0.250000  0.530065  1
  O  O5  1  0.354420  0.620432  0.511136  1
  O  O6  1  0.145580  0.879568  0.511136  1
  O  O7  1  0.645580  0.379568  0.488864  1
  O  O8  1  0.854420  0.120432  0.488864  1
