# generated using pymatgen
data_NaSbO2
_symmetry_space_group_name_H-M   'P 1'
_cell_length_a   4.80031390
_cell_length_b   6.38208137
_cell_length_c   25.54455600
_cell_angle_alpha   90.00000000
_cell_angle_beta   90.00000000
_cell_angle_gamma   90.00000000
_symmetry_Int_Tables_number   1
_chemical_formula_structural   NaSbO2
_chemical_formula_sum   'Na4 Sb4 O8'
_cell_volume   782.58286208
_cell_formula_units_Z   4
loop_
 _symmetry_equiv_pos_site_id
 _symmetry_equiv_pos_as_xyz
  1  'x, y, z'
loop_
 _atom_site_type_symbol
 _atom_site_label
 _atom_site_symmetry_multiplicity
 _atom_site_fract_x
 _atom_site_fract_y
 _atom_site_fract_z
 _atom_site_occupancy
  Na  Na1  1  0.706707  0.914109  0.533298  1
  Na  Na2  1  0.206707  0.585891  0.533298  1
  Na  Na3  1  0.706707  0.414109  0.466702  1
  Na  Na4  1  0.206707  0.085891  0.466702  1
  Sb  Sb5  1  0.730153  0.446314  0.618345  1
  Sb  Sb6  1  0.230153  0.053686  0.618345  1
  Sb  Sb7  1  0.730153  0.946314  0.381655  1
  Sb  Sb8  1  0.230153  0.553686  0.381655  1
  O  O9  1  0.137434  0.361138  0.607018  1
  O  O10  1  0.637434  0.138862  0.607018  1
  O  O11  1  0.696401  0.555999  0.548564  1
  O  O12  1  0.196401  0.944001  0.548564  1
  O  O13  1  0.196401  0.444001  0.451436  1
  O  O14  1  0.696401  0.055999  0.451436  1
  O  O15  1  0.137434  0.861138  0.392982  1
  O  O16  1  0.637434  0.638862  0.392982  1
