# generated using pymatgen
data_YVF5
_symmetry_space_group_name_H-M   'P 1'
_cell_length_a   4.45407073
_cell_length_b   8.39102520
_cell_length_c   24.45660600
_cell_angle_alpha   90.00000000
_cell_angle_beta   90.00000000
_cell_angle_gamma   90.00000000
_symmetry_Int_Tables_number   1
_chemical_formula_structural   YVF5
_chemical_formula_sum   'Y1 V1 F5'
_cell_volume   914.04656669
_cell_formula_units_Z   1
loop_
 _symmetry_equiv_pos_site_id
 _symmetry_equiv_pos_as_xyz
  1  'x, y, z'
loop_
 _atom_site_type_symbol
 _atom_site_label
 _atom_site_symmetry_multiplicity
 _atom_site_fract_x
 _atom_site_fract_y
 _atom_site_fract_z
 _atom_site_occupancy
  Y  Y1  1  -0.000000  0.500000  0.500000  1
  V  V2  1  0.000000  -0.000000  0.500000  1
  F  F3  1  -0.000000  0.500000  0.585042  1
  F  F4  1  -0.000000  0.500000  0.414958  1
  F  F5  1  0.000000  0.219581  0.500000  1
  F  F6  1  -0.000000  0.780419  0.500000  1
  F  F7  1  0.500000  0.500000  0.500000  1
