# generated using pymatgen
data_YCBr
_symmetry_space_group_name_H-M   'P 1'
_cell_length_a   3.81305731
_cell_length_b   4.00475237
_cell_length_c   26.61620700
_cell_angle_alpha   90.00000000
_cell_angle_beta   90.00000000
_cell_angle_gamma   118.42881602
_symmetry_Int_Tables_number   1
_chemical_formula_structural   YCBr
_chemical_formula_sum   'Y2 C2 Br2'
_cell_volume   357.42604546
_cell_formula_units_Z   2
loop_
 _symmetry_equiv_pos_site_id
 _symmetry_equiv_pos_as_xyz
  1  'x, y, z'
loop_
 _atom_site_type_symbol
 _atom_site_label
 _atom_site_symmetry_multiplicity
 _atom_site_fract_x
 _atom_site_fract_y
 _atom_site_fract_z
 _atom_site_occupancy
  Y  Y1  1  0.603354  0.206707  0.554233  1
  Y  Y2  1  0.349821  0.699641  0.445767  1
  C  C3  1  0.897557  0.795115  0.513582  1
  C  C4  1  0.055617  0.111233  0.486418  1
  Br  Br5  1  0.259796  0.519591  0.624253  1
  Br  Br6  1  0.693378  0.386757  0.375747  1
