# generated using pymatgen
data_RbSb2F7
_symmetry_space_group_name_H-M   'P 1'
_cell_length_a   6.45099042
_cell_length_b   8.79599075
_cell_length_c   32.41671300
_cell_angle_alpha   89.83551850
_cell_angle_beta   90.00000000
_cell_angle_gamma   90.00000000
_symmetry_Int_Tables_number   1
_chemical_formula_structural   RbSb2F7
_chemical_formula_sum   'Rb4 Sb8 F28'
_cell_volume   1839.40917161
_cell_formula_units_Z   4
loop_
 _symmetry_equiv_pos_site_id
 _symmetry_equiv_pos_as_xyz
  1  'x, y, z'
loop_
 _atom_site_type_symbol
 _atom_site_label
 _atom_site_symmetry_multiplicity
 _atom_site_fract_x
 _atom_site_fract_y
 _atom_site_fract_z
 _atom_site_occupancy
  Rb  Rb1  1  0.766367  0.886507  0.541558  1
  Rb  Rb2  1  0.733633  0.386507  0.541558  1
  Rb  Rb3  1  0.266367  0.613493  0.458442  1
  Rb  Rb4  1  0.233633  0.113493  0.458442  1
  Sb  Sb5  1  0.237272  0.646469  0.583809  1
  Sb  Sb6  1  0.737272  0.853531  0.416191  1
  Sb  Sb7  1  0.762728  0.353531  0.416191  1
  Sb  Sb8  1  0.262728  0.146469  0.583809  1
  Sb  Sb9  1  0.300304  0.285628  0.337490  1
  Sb  Sb10  1  0.199696  0.785628  0.337490  1
  Sb  Sb11  1  0.699696  0.714372  0.662510  1
  Sb  Sb12  1  0.800304  0.214372  0.662510  1
  F  F13  1  0.573335  0.299230  0.309820  1
  F  F14  1  0.633596  0.510154  0.641119  1
  F  F15  1  0.204610  0.865719  0.566813  1
  F  F16  1  0.133596  0.989846  0.358881  1
  F  F17  1  0.965390  0.853581  0.459597  1
  F  F18  1  0.551055  0.891885  0.463851  1
  F  F19  1  0.534610  0.353581  0.459597  1
  F  F20  1  0.915066  0.696860  0.609726  1
  F  F21  1  0.448945  0.108115  0.536149  1
  F  F22  1  0.948945  0.391885  0.463851  1
  F  F23  1  0.366404  0.489846  0.358881  1
  F  F24  1  0.584934  0.196860  0.609726  1
  F  F25  1  0.034610  0.146419  0.540403  1
  F  F26  1  0.926665  0.799230  0.309820  1
  F  F27  1  0.463421  0.186392  0.381919  1
  F  F28  1  0.051055  0.608115  0.536149  1
  F  F29  1  0.465390  0.646419  0.540403  1
  F  F30  1  0.704610  0.634281  0.433187  1
  F  F31  1  0.963421  0.313608  0.618081  1
  F  F32  1  0.795390  0.134281  0.433187  1
  F  F33  1  0.536579  0.813608  0.618081  1
  F  F34  1  0.036579  0.686392  0.381919  1
  F  F35  1  0.866404  0.010154  0.641119  1
  F  F36  1  0.415066  0.803140  0.390274  1
  F  F37  1  0.426665  0.700770  0.690180  1
  F  F38  1  0.295390  0.365719  0.566813  1
  F  F39  1  0.073335  0.200770  0.690180  1
  F  F40  1  0.084934  0.303140  0.390274  1
