# generated using pymatgen
data_Mg(IO3)2
_symmetry_space_group_name_H-M   'P 1'
_cell_length_a   5.33862145
_cell_length_b   5.70355028
_cell_length_c   27.13001500
_cell_angle_alpha   90.00000000
_cell_angle_beta   90.00000000
_cell_angle_gamma   90.00000000
_symmetry_Int_Tables_number   1
_chemical_formula_structural   Mg(IO3)2
_chemical_formula_sum   'Mg2 I4 O12'
_cell_volume   826.08442758
_cell_formula_units_Z   2
loop_
 _symmetry_equiv_pos_site_id
 _symmetry_equiv_pos_as_xyz
  1  'x, y, z'
loop_
 _atom_site_type_symbol
 _atom_site_label
 _atom_site_symmetry_multiplicity
 _atom_site_fract_x
 _atom_site_fract_y
 _atom_site_fract_z
 _atom_site_occupancy
  Mg  Mg1  1  0.709065  0.913384  0.559288  1
  Mg  Mg2  1  0.209065  0.086616  0.440712  1
  I  I3  1  0.256964  0.978772  0.627775  1
  I  I4  1  0.756964  0.021229  0.372225  1
  I  I5  1  0.022796  0.391021  0.548544  1
  I  I6  1  0.522796  0.608979  0.451456  1
  O  O7  1  0.032058  0.782891  0.597575  1
  O  O8  1  0.526754  0.783019  0.628409  1
  O  O9  1  0.426593  0.866135  0.489076  1
  O  O10  1  0.895166  0.859166  0.424790  1
  O  O11  1  0.395166  0.140834  0.575210  1
  O  O12  1  0.926593  0.133865  0.510924  1
  O  O13  1  0.026754  0.216981  0.371591  1
  O  O14  1  0.532058  0.217109  0.402425  1
  O  O15  1  0.912620  0.246006  0.606122  1
  O  O16  1  0.240712  0.428979  0.466217  1
  O  O17  1  0.740712  0.571021  0.533783  1
  O  O18  1  0.412620  0.753994  0.393878  1
