# generated using pymatgen
data_Ta3Br7
_symmetry_space_group_name_H-M   'P 1'
_cell_length_a   11.76781666
_cell_length_b   13.97999853
_cell_length_c   26.30889400
_cell_angle_alpha   90.00000000
_cell_angle_beta   90.00000000
_cell_angle_gamma   90.00000000
_symmetry_Int_Tables_number   1
_chemical_formula_structural   Ta3Br7
_chemical_formula_sum   'Ta12 Br28'
_cell_volume   4328.18295574
_cell_formula_units_Z   4
loop_
 _symmetry_equiv_pos_site_id
 _symmetry_equiv_pos_as_xyz
  1  'x, y, z'
loop_
 _atom_site_type_symbol
 _atom_site_label
 _atom_site_symmetry_multiplicity
 _atom_site_fract_x
 _atom_site_fract_y
 _atom_site_fract_z
 _atom_site_occupancy
  Ta  Ta1  1  0.919900  0.500000  0.436575  1
  Ta  Ta2  1  0.419900  -0.000000  0.563425  1
  Ta  Ta3  1  0.580100  -0.000000  0.436575  1
  Ta  Ta4  1  0.080100  0.500000  0.563425  1
  Ta  Ta5  1  0.109836  0.393311  0.472157  1
  Ta  Ta6  1  0.609836  0.106689  0.527843  1
  Ta  Ta7  1  0.390164  0.106689  0.472157  1
  Ta  Ta8  1  0.890164  0.393311  0.527843  1
  Ta  Ta9  1  0.890164  0.606689  0.527843  1
  Ta  Ta10  1  0.390164  0.893311  0.472157  1
  Ta  Ta11  1  0.609836  0.893311  0.527843  1
  Ta  Ta12  1  0.109836  0.606689  0.472157  1
  Br  Br13  1  0.250000  0.250000  0.429820  1
  Br  Br14  1  0.750000  0.250000  0.570180  1
  Br  Br15  1  0.750000  0.750000  0.570180  1
  Br  Br16  1  0.250000  0.750000  0.429820  1
  Br  Br17  1  0.020612  0.372345  0.380016  1
  Br  Br18  1  0.520612  0.127655  0.619984  1
  Br  Br19  1  0.479388  0.127655  0.380016  1
  Br  Br20  1  0.979388  0.372345  0.619984  1
  Br  Br21  1  0.979388  0.627655  0.619984  1
  Br  Br22  1  0.479388  0.872345  0.380016  1
  Br  Br23  1  0.520612  0.872345  0.619984  1
  Br  Br24  1  0.020612  0.627655  0.380016  1
  Br  Br25  1  0.268269  0.500000  0.431764  1
  Br  Br26  1  0.768269  -0.000000  0.568236  1
  Br  Br27  1  0.231731  -0.000000  0.431764  1
  Br  Br28  1  0.731731  0.500000  0.568236  1
  Br  Br29  1  0.000000  0.760068  0.500000  1
  Br  Br30  1  0.500000  0.739932  0.500000  1
  Br  Br31  1  0.000000  0.239932  0.500000  1
  Br  Br32  1  0.500000  0.260068  0.500000  1
  Br  Br33  1  0.242278  0.624831  0.552691  1
  Br  Br34  1  0.742278  0.875169  0.447309  1
  Br  Br35  1  0.257722  0.875169  0.552691  1
  Br  Br36  1  0.757722  0.624831  0.447309  1
  Br  Br37  1  0.757722  0.375169  0.447309  1
  Br  Br38  1  0.257722  0.124831  0.552691  1
  Br  Br39  1  0.742278  0.124831  0.447309  1
  Br  Br40  1  0.242278  0.375169  0.552691  1
