# generated using pymatgen
data_UPb2
_symmetry_space_group_name_H-M   'P 1'
_cell_length_a   3.59791671
_cell_length_b   5.31935881
_cell_length_c   26.17771400
_cell_angle_alpha   90.00000000
_cell_angle_beta   90.00000000
_cell_angle_gamma   86.12033123
_symmetry_Int_Tables_number   1
_chemical_formula_structural   UPb2
_chemical_formula_sum   'U2 Pb4'
_cell_volume   499.85693007
_cell_formula_units_Z   2
loop_
 _symmetry_equiv_pos_site_id
 _symmetry_equiv_pos_as_xyz
  1  'x, y, z'
loop_
 _atom_site_type_symbol
 _atom_site_label
 _atom_site_symmetry_multiplicity
 _atom_site_fract_x
 _atom_site_fract_y
 _atom_site_fract_z
 _atom_site_occupancy
  U  U1  1  0.730759  0.665023  0.492455  1
  U  U2  1  0.269241  0.334977  0.507545  1
  Pb  Pb3  1  0.793031  0.112072  0.408718  1
  Pb  Pb4  1  0.206969  0.887928  0.591282  1
  Pb  Pb5  1  0.249196  0.581313  0.375298  1
  Pb  Pb6  1  0.750804  0.418687  0.624702  1
