# generated using pymatgen
data_LuPS4
_symmetry_space_group_name_H-M   'P 1'
_cell_length_a   6.45239801
_cell_length_b   12.49793632
_cell_length_c   25.12889700
_cell_angle_alpha   90.00000000
_cell_angle_beta   90.00000000
_cell_angle_gamma   90.00000000
_symmetry_Int_Tables_number   1
_chemical_formula_structural   LuPS4
_chemical_formula_sum   'Lu4 P4 S16'
_cell_volume   2026.43595398
_cell_formula_units_Z   4
loop_
 _symmetry_equiv_pos_site_id
 _symmetry_equiv_pos_as_xyz
  1  'x, y, z'
loop_
 _atom_site_type_symbol
 _atom_site_label
 _atom_site_symmetry_multiplicity
 _atom_site_fract_x
 _atom_site_fract_y
 _atom_site_fract_z
 _atom_site_occupancy
  Lu  Lu1  1  0.678985  0.651874  0.483608  1
  Lu  Lu2  1  0.178985  0.442061  0.516393  1
  Lu  Lu3  1  0.321015  0.942061  0.516393  1
  Lu  Lu4  1  0.821015  0.151874  0.483608  1
  P  P5  1  0.770602  0.900995  0.444908  1
  P  P6  1  0.270602  0.192940  0.555092  1
  P  P7  1  0.229398  0.692940  0.555092  1
  P  P8  1  0.729398  0.400995  0.444908  1
  S  S9  1  0.769186  0.356181  0.524074  1
  S  S10  1  0.269186  0.737754  0.475926  1
  S  S11  1  0.230814  0.237754  0.475926  1
  S  S12  1  0.730814  0.856181  0.524074  1
  S  S13  1  0.744855  0.271175  0.397764  1
  S  S14  1  0.244855  0.822760  0.602236  1
  S  S15  1  0.255145  0.322760  0.602236  1
  S  S16  1  0.755145  0.771175  0.397764  1
  S  S17  1  0.458648  0.488619  0.435551  1
  S  S18  1  0.958648  0.605316  0.564449  1
  S  S19  1  0.541352  0.105316  0.564449  1
  S  S20  1  0.041352  0.988619  0.435551  1
  S  S21  1  0.951758  0.516343  0.429971  1
  S  S22  1  0.451758  0.577592  0.570029  1
  S  S23  1  0.048242  0.077592  0.570029  1
  S  S24  1  0.548242  0.016343  0.429971  1
