# generated using pymatgen
data_PbS
_symmetry_space_group_name_H-M   'P 1'
_cell_length_a   6.10318907
_cell_length_b   6.89764706
_cell_length_c   23.75355400
_cell_angle_alpha   90.00000000
_cell_angle_beta   90.00000000
_cell_angle_gamma   90.00000000
_symmetry_Int_Tables_number   1
_chemical_formula_structural   PbS
_chemical_formula_sum   'Pb4 S4'
_cell_volume   999.96866348
_cell_formula_units_Z   4
loop_
 _symmetry_equiv_pos_site_id
 _symmetry_equiv_pos_as_xyz
  1  'x, y, z'
loop_
 _atom_site_type_symbol
 _atom_site_label
 _atom_site_symmetry_multiplicity
 _atom_site_fract_x
 _atom_site_fract_y
 _atom_site_fract_z
 _atom_site_occupancy
  Pb  Pb1  1  0.994267  0.250000  0.581804  1
  Pb  Pb2  1  0.994267  0.750000  0.418196  1
  Pb  Pb3  1  0.540545  0.750000  0.541706  1
  Pb  Pb4  1  0.540545  0.250000  0.458294  1
  S  S5  1  0.865676  0.000000  0.500000  1
  S  S6  1  0.865676  0.500000  0.500000  1
  S  S7  1  0.419411  0.250000  0.564742  1
  S  S8  1  0.419411  0.750000  0.435258  1
