# generated using pymatgen
data_Mg(IO3)2
_symmetry_space_group_name_H-M   'P 1'
_cell_length_a   5.47857242
_cell_length_b   5.49950163
_cell_length_c   23.28157000
_cell_angle_alpha   90.00000000
_cell_angle_beta   90.00000000
_cell_angle_gamma   88.94442912
_symmetry_Int_Tables_number   1
_chemical_formula_structural   Mg(IO3)2
_chemical_formula_sum   'Mg1 I2 O6'
_cell_volume   701.34111446
_cell_formula_units_Z   1
loop_
 _symmetry_equiv_pos_site_id
 _symmetry_equiv_pos_as_xyz
  1  'x, y, z'
loop_
 _atom_site_type_symbol
 _atom_site_label
 _atom_site_symmetry_multiplicity
 _atom_site_fract_x
 _atom_site_fract_y
 _atom_site_fract_z
 _atom_site_occupancy
  Mg  Mg1  1  0.737022  0.162150  0.492339  1
  I  I2  1  0.271559  0.236306  0.558390  1
  I  I3  1  0.987720  0.633812  0.458334  1
  O  O4  1  0.058867  0.015067  0.528526  1
  O  O5  1  0.544317  0.044141  0.567433  1
  O  O6  1  0.398582  0.367168  0.492119  1
  O  O7  1  0.874640  0.363719  0.422718  1
  O  O8  1  0.924183  0.498988  0.530345  1
  O  O9  1  0.725840  0.840957  0.449797  1
