# generated using pymatgen
data_AgBiO2
_symmetry_space_group_name_H-M   'P 1'
_cell_length_a   4.03233178
_cell_length_b   4.03056646
_cell_length_c   26.42147600
_cell_angle_alpha   90.00000000
_cell_angle_beta   90.00000000
_cell_angle_gamma   90.00000000
_symmetry_Int_Tables_number   1
_chemical_formula_structural   AgBiO2
_chemical_formula_sum   'Ag2 Bi2 O4'
_cell_volume   429.41718486
_cell_formula_units_Z   2
loop_
 _symmetry_equiv_pos_site_id
 _symmetry_equiv_pos_as_xyz
  1  'x, y, z'
loop_
 _atom_site_type_symbol
 _atom_site_label
 _atom_site_symmetry_multiplicity
 _atom_site_fract_x
 _atom_site_fract_y
 _atom_site_fract_z
 _atom_site_occupancy
  Ag  Ag1  1  -0.000000  0.000000  0.500000  1
  Ag  Ag2  1  0.500000  0.500000  0.500000  1
  Bi  Bi3  1  0.500000  0.072273  0.386212  1
  Bi  Bi4  1  0.500000  0.927727  0.613788  1
  O  O5  1  0.500000  0.428877  0.579372  1
  O  O6  1  0.500000  0.571123  0.420628  1
  O  O7  1  -0.000000  0.929312  0.579241  1
  O  O8  1  -0.000000  0.070688  0.420759  1
