# generated using pymatgen
data_FeBr3
_symmetry_space_group_name_H-M   'P 1'
_cell_length_a   6.19455864
_cell_length_b   6.19455787
_cell_length_c   22.74500339
_cell_angle_alpha   90.00000000
_cell_angle_beta   90.00000000
_cell_angle_gamma   59.99999587
_symmetry_Int_Tables_number   1
_chemical_formula_structural   FeBr3
_chemical_formula_sum   'Fe2 Br6'
_cell_volume   755.85293316
_cell_formula_units_Z   2
loop_
 _symmetry_equiv_pos_site_id
 _symmetry_equiv_pos_as_xyz
  1  'x, y, z'
loop_
 _atom_site_type_symbol
 _atom_site_label
 _atom_site_symmetry_multiplicity
 _atom_site_fract_x
 _atom_site_fract_y
 _atom_site_fract_z
 _atom_site_occupancy
  Fe  Fe1  1  -0.000000  0.000000  0.500015  1
  Fe  Fe2  1  0.333333  0.333333  0.499985  1
  Br  Br3  1  0.027419  0.305950  0.439120  1
  Br  Br4  1  0.305950  0.666631  0.439120  1
  Br  Br5  1  0.666631  0.027419  0.439120  1
  Br  Br6  1  0.305915  0.027384  0.560880  1
  Br  Br7  1  0.027384  0.666703  0.560880  1
  Br  Br8  1  0.666703  0.305915  0.560880  1
