# generated using pymatgen
data_Li(CoO2)2
_symmetry_space_group_name_H-M   'P 1'
_cell_length_a   2.94863621
_cell_length_b   2.94863660
_cell_length_c   26.60843600
_cell_angle_alpha   90.00000000
_cell_angle_beta   90.00000000
_cell_angle_gamma   60.00000425
_symmetry_Int_Tables_number   1
_chemical_formula_structural   Li(CoO2)2
_chemical_formula_sum   'Li1 Co2 O4'
_cell_volume   200.35142912
_cell_formula_units_Z   1
loop_
 _symmetry_equiv_pos_site_id
 _symmetry_equiv_pos_as_xyz
  1  'x, y, z'
loop_
 _atom_site_type_symbol
 _atom_site_label
 _atom_site_symmetry_multiplicity
 _atom_site_fract_x
 _atom_site_fract_y
 _atom_site_fract_z
 _atom_site_occupancy
  Li  Li1  1  0.000000  0.000000  0.503091  1
  Co  Co2  1  0.666667  0.666667  0.593123  1
  Co  Co3  1  0.000000  0.000000  0.407541  1
  O  O4  1  0.333333  0.333333  0.373257  1
  O  O5  1  0.666667  0.666667  0.449611  1
  O  O6  1  0.333333  0.333333  0.547285  1
  O  O7  1  0.000000  0.000000  0.626093  1
