# generated using pymatgen
data_CdWO4
_symmetry_space_group_name_H-M   'P 1'
_cell_length_a   5.23452895
_cell_length_b   5.01437641
_cell_length_c   24.38177900
_cell_angle_alpha   90.00000000
_cell_angle_beta   90.00000000
_cell_angle_gamma   95.23011730
_symmetry_Int_Tables_number   1
_chemical_formula_structural   CdWO4
_chemical_formula_sum   'Cd2 W2 O8'
_cell_volume   637.30602062
_cell_formula_units_Z   2
loop_
 _symmetry_equiv_pos_site_id
 _symmetry_equiv_pos_as_xyz
  1  'x, y, z'
loop_
 _atom_site_type_symbol
 _atom_site_label
 _atom_site_symmetry_multiplicity
 _atom_site_fract_x
 _atom_site_fract_y
 _atom_site_fract_z
 _atom_site_occupancy
  Cd  Cd1  1  0.500000  0.250000  0.431958  1
  Cd  Cd2  1  0.500000  0.750000  0.568042  1
  W  W3  1  -0.000000  0.250000  0.544739  1
  W  W4  1  0.000000  0.750000  0.455261  1
  O  O5  1  0.773435  0.079259  0.592345  1
  O  O6  1  0.226565  0.420741  0.592345  1
  O  O7  1  0.226565  0.920741  0.407655  1
  O  O8  1  0.773435  0.579259  0.407655  1
  O  O9  1  0.795266  0.039306  0.477123  1
  O  O10  1  0.204734  0.460694  0.477123  1
  O  O11  1  0.204734  0.960694  0.522877  1
  O  O12  1  0.795266  0.539306  0.522877  1
