# generated using pymatgen
data_KC2N3
_symmetry_space_group_name_H-M   'P 1'
_cell_length_a   3.97291141
_cell_length_b   8.50088682
_cell_length_c   24.37592500
_cell_angle_alpha   90.00000000
_cell_angle_beta   90.00000000
_cell_angle_gamma   90.00000000
_symmetry_Int_Tables_number   1
_chemical_formula_structural   KC2N3
_chemical_formula_sum   'K2 C4 N6'
_cell_volume   823.25470243
_cell_formula_units_Z   2
loop_
 _symmetry_equiv_pos_site_id
 _symmetry_equiv_pos_as_xyz
  1  'x, y, z'
loop_
 _atom_site_type_symbol
 _atom_site_label
 _atom_site_symmetry_multiplicity
 _atom_site_fract_x
 _atom_site_fract_y
 _atom_site_fract_z
 _atom_site_occupancy
  K  K1  1  0.750000  0.624175  0.561175  1
  K  K2  1  0.250000  0.375825  0.438825  1
  C  C3  1  0.250000  0.262306  0.567171  1
  C  C4  1  0.750000  0.015498  0.431889  1
  C  C5  1  0.750000  0.737694  0.432829  1
  C  C6  1  0.250000  0.984502  0.568111  1
  N  N7  1  0.250000  0.396072  0.553358  1
  N  N8  1  0.250000  0.124398  0.588031  1
  N  N9  1  0.750000  0.149945  0.444274  1
  N  N10  1  0.750000  0.875602  0.411969  1
  N  N11  1  0.250000  0.850055  0.555726  1
  N  N12  1  0.750000  0.603928  0.446642  1
