# generated using pymatgen
data_ThTe3
_symmetry_space_group_name_H-M   'P 1'
_cell_length_a   4.41464618
_cell_length_b   6.25666414
_cell_length_c   27.21023159
_cell_angle_alpha   90.07113792
_cell_angle_beta   90.00000000
_cell_angle_gamma   90.00000000
_symmetry_Int_Tables_number   1
_chemical_formula_structural   ThTe3
_chemical_formula_sum   'Th2 Te6'
_cell_volume   751.57209649
_cell_formula_units_Z   2
loop_
 _symmetry_equiv_pos_site_id
 _symmetry_equiv_pos_as_xyz
  1  'x, y, z'
loop_
 _atom_site_type_symbol
 _atom_site_label
 _atom_site_symmetry_multiplicity
 _atom_site_fract_x
 _atom_site_fract_y
 _atom_site_fract_z
 _atom_site_occupancy
  Th  Th1  1  0.250000  0.750887  0.561136  1
  Th  Th2  1  0.750000  0.249113  0.438864  1
  Te  Te3  1  0.250000  0.476392  0.371362  1
  Te  Te4  1  0.750000  0.523608  0.628638  1
  Te  Te5  1  0.250000  0.250049  0.524472  1
  Te  Te6  1  0.750000  0.749951  0.475528  1
  Te  Te7  1  0.250000  0.028669  0.369261  1
  Te  Te8  1  0.750000  0.971331  0.630739  1
