# generated using pymatgen
data_TePt
_symmetry_space_group_name_H-M   'P 1'
_cell_length_a   3.97200558
_cell_length_b   3.97200503
_cell_length_c   23.95034000
_cell_angle_alpha   90.00000000
_cell_angle_beta   90.00000000
_cell_angle_gamma   59.99999541
_symmetry_Int_Tables_number   1
_chemical_formula_structural   TePt
_chemical_formula_sum   'Te2 Pt2'
_cell_volume   327.23664718
_cell_formula_units_Z   2
loop_
 _symmetry_equiv_pos_site_id
 _symmetry_equiv_pos_as_xyz
  1  'x, y, z'
loop_
 _atom_site_type_symbol
 _atom_site_label
 _atom_site_symmetry_multiplicity
 _atom_site_fract_x
 _atom_site_fract_y
 _atom_site_fract_z
 _atom_site_occupancy
  Te  Te1  1  0.666667  0.666667  0.585171  1
  Te  Te2  1  0.666667  0.666667  0.414829  1
  Pt  Pt3  1  0.333333  0.333333  0.531531  1
  Pt  Pt4  1  -0.000000  0.000000  0.468469  1
