# generated using pymatgen
data_BiO2
_symmetry_space_group_name_H-M   'P 1'
_cell_length_a   3.44409247
_cell_length_b   10.54377382
_cell_length_c   30.97252600
_cell_angle_alpha   90.00000000
_cell_angle_beta   90.00000000
_cell_angle_gamma   90.00000000
_symmetry_Int_Tables_number   1
_chemical_formula_structural   BiO2
_chemical_formula_sum   'Bi8 O16'
_cell_volume   1124.72800911
_cell_formula_units_Z   8
loop_
 _symmetry_equiv_pos_site_id
 _symmetry_equiv_pos_as_xyz
  1  'x, y, z'
loop_
 _atom_site_type_symbol
 _atom_site_label
 _atom_site_symmetry_multiplicity
 _atom_site_fract_x
 _atom_site_fract_y
 _atom_site_fract_z
 _atom_site_occupancy
  Bi  Bi1  1  0.500000  0.401248  0.635236  1
  Bi  Bi2  1  -0.000000  0.099463  0.438143  1
  Bi  Bi3  1  0.500000  0.901357  0.364762  1
  Bi  Bi4  1  -0.000000  0.599385  0.561876  1
  Bi  Bi5  1  0.000000  0.555321  0.360203  1
  Bi  Bi6  1  0.500000  0.457843  0.453049  1
  Bi  Bi7  1  0.000000  0.055199  0.639792  1
  Bi  Bi8  1  0.500000  0.957752  0.546940  1
  O  O9  1  0.500000  0.924994  0.615443  1
  O  O10  1  0.000000  0.081451  0.568737  1
  O  O11  1  0.500000  0.425112  0.384548  1
  O  O12  1  0.000000  0.581547  0.431261  1
  O  O13  1  0.500000  0.036016  0.485099  1
  O  O14  1  0.000000  0.917275  0.322803  1
  O  O15  1  0.500000  0.536017  0.514907  1
  O  O16  1  0.000000  0.417131  0.677199  1
  O  O17  1  0.500000  0.595751  0.611533  1
  O  O18  1  0.000000  0.396546  0.587614  1
  O  O19  1  0.500000  0.095856  0.388491  1
  O  O20  1  0.000000  0.896635  0.412384  1
  O  O21  1  0.000000  0.831134  0.537175  1
  O  O22  1  0.500000  0.198216  0.638844  1
  O  O23  1  0.500000  0.698332  0.361151  1
  O  O24  1  0.000000  0.331213  0.462811  1
