# generated using pymatgen
data_Bi4Te2Br2O9
_symmetry_space_group_name_H-M   'P 1'
_cell_length_a   5.64847938
_cell_length_b   5.64847938
_cell_length_c   26.67218200
_cell_angle_alpha   90.00000000
_cell_angle_beta   90.00000000
_cell_angle_gamma   90.00000000
_symmetry_Int_Tables_number   1
_chemical_formula_structural   Bi4Te2Br2O9
_chemical_formula_sum   'Bi4 Te2 Br2 O9'
_cell_volume   850.98448331
_cell_formula_units_Z   1
loop_
 _symmetry_equiv_pos_site_id
 _symmetry_equiv_pos_as_xyz
  1  'x, y, z'
loop_
 _atom_site_type_symbol
 _atom_site_label
 _atom_site_symmetry_multiplicity
 _atom_site_fract_x
 _atom_site_fract_y
 _atom_site_fract_z
 _atom_site_occupancy
  Bi  Bi1  1  -0.000000  -0.000000  0.417545  1
  Bi  Bi2  1  -0.000000  0.500000  0.508179  1
  Bi  Bi3  1  0.500000  -0.000000  0.508179  1
  Bi  Bi4  1  0.500000  0.500000  0.412733  1
  Te  Te5  1  -0.000000  -0.000000  0.604793  1
  Te  Te6  1  0.500000  0.500000  0.578018  1
  Br  Br7  1  0.500000  0.000000  0.356086  1
  Br  Br8  1  -0.000000  0.500000  0.356086  1
  O  O9  1  0.739505  0.739505  0.594606  1
  O  O10  1  -0.000000  -0.000000  0.533497  1
  O  O11  1  0.743942  0.743942  0.461615  1
  O  O12  1  0.739505  0.260495  0.594606  1
  O  O13  1  0.256058  0.743942  0.461615  1
  O  O14  1  0.256058  0.256058  0.461615  1
  O  O15  1  0.260495  0.260495  0.594606  1
  O  O16  1  0.260495  0.739505  0.594606  1
  O  O17  1  0.743942  0.256058  0.461615  1
