# generated using pymatgen
data_Mn2OF4
_symmetry_space_group_name_H-M   'P 1'
_cell_length_a   3.05254051
_cell_length_b   12.07691971
_cell_length_c   22.80224900
_cell_angle_alpha   90.00000000
_cell_angle_beta   90.00000000
_cell_angle_gamma   90.00000000
_symmetry_Int_Tables_number   1
_chemical_formula_structural   Mn2OF4
_chemical_formula_sum   'Mn4 O2 F8'
_cell_volume   840.61144567
_cell_formula_units_Z   2
loop_
 _symmetry_equiv_pos_site_id
 _symmetry_equiv_pos_as_xyz
  1  'x, y, z'
loop_
 _atom_site_type_symbol
 _atom_site_label
 _atom_site_symmetry_multiplicity
 _atom_site_fract_x
 _atom_site_fract_y
 _atom_site_fract_z
 _atom_site_occupancy
  Mn  Mn1  1  -0.000000  0.788979  0.557807  1
  Mn  Mn2  1  -0.000000  0.101350  0.511322  1
  Mn  Mn3  1  0.500000  0.601350  0.488678  1
  Mn  Mn4  1  0.500000  0.288979  0.442193  1
  O  O5  1  0.000000  0.253982  0.492746  1
  O  O6  1  0.500000  0.753982  0.507254  1
  F  F7  1  0.000000  0.948931  0.527343  1
  F  F8  1  0.000000  0.596898  0.551169  1
  F  F9  1  0.500000  0.809897  0.611680  1
  F  F10  1  0.000000  0.622642  0.434728  1
  F  F11  1  0.500000  0.122642  0.565272  1
  F  F12  1  0.000000  0.309897  0.388320  1
  F  F13  1  0.500000  0.448931  0.472657  1
  F  F14  1  0.500000  0.096898  0.448831  1
