# generated using pymatgen
data_NpTe3
_symmetry_space_group_name_H-M   'P 1'
_cell_length_a   4.23276579
_cell_length_b   4.11471642
_cell_length_c   30.61283927
_cell_angle_alpha   90.00000000
_cell_angle_beta   90.00000000
_cell_angle_gamma   90.00000000
_symmetry_Int_Tables_number   1
_chemical_formula_structural   NpTe3
_chemical_formula_sum   'Np2 Te6'
_cell_volume   533.17252231
_cell_formula_units_Z   2
loop_
 _symmetry_equiv_pos_site_id
 _symmetry_equiv_pos_as_xyz
  1  'x, y, z'
loop_
 _atom_site_type_symbol
 _atom_site_label
 _atom_site_symmetry_multiplicity
 _atom_site_fract_x
 _atom_site_fract_y
 _atom_site_fract_z
 _atom_site_occupancy
  Np  Np1  1  -0.000000  0.250000  0.522327  1
  Np  Np2  1  -0.000000  0.750000  0.477673  1
  Te  Te3  1  0.000000  0.250000  0.644244  1
  Te  Te4  1  0.000000  0.750000  0.355756  1
  Te  Te5  1  0.500000  0.250000  0.328266  1
  Te  Te6  1  0.500000  0.750000  0.671734  1
  Te  Te7  1  0.500000  0.250000  0.444233  1
  Te  Te8  1  0.500000  0.750000  0.555767  1
