# generated using pymatgen
data_CaSnO2
_symmetry_space_group_name_H-M   'P 1'
_cell_length_a   3.30565755
_cell_length_b   8.30384415
_cell_length_c   28.23258800
_cell_angle_alpha   90.00000000
_cell_angle_beta   90.00000000
_cell_angle_gamma   103.48204874
_symmetry_Int_Tables_number   1
_chemical_formula_structural   CaSnO2
_chemical_formula_sum   'Ca4 Sn4 O8'
_cell_volume   753.61910774
_cell_formula_units_Z   4
loop_
 _symmetry_equiv_pos_site_id
 _symmetry_equiv_pos_as_xyz
  1  'x, y, z'
loop_
 _atom_site_type_symbol
 _atom_site_label
 _atom_site_symmetry_multiplicity
 _atom_site_fract_x
 _atom_site_fract_y
 _atom_site_fract_z
 _atom_site_occupancy
  Ca  Ca1  1  0.692626  0.673495  0.603815  1
  Ca  Ca2  1  0.906714  0.392130  0.396072  1
  Ca  Ca3  1  0.980291  0.378566  0.528953  1
  Ca  Ca4  1  0.620425  0.687117  0.471040  1
  Sn  Sn5  1  0.176998  0.785363  0.359362  1
  Sn  Sn6  1  0.396535  0.964664  0.550916  1
  Sn  Sn7  1  0.203329  0.101497  0.449076  1
  Sn  Sn8  1  0.423617  0.280312  0.640707  1
  O  O9  1  0.305386  0.200306  0.384687  1
  O  O10  1  0.220156  0.850118  0.431619  1
  O  O11  1  0.380601  0.215830  0.568442  1
  O  O12  1  0.293736  0.865352  0.615285  1
  O  O13  1  0.565126  0.612172  0.379836  1
  O  O14  1  0.095239  0.665806  0.530760  1
  O  O15  1  0.035207  0.453469  0.620210  1
  O  O16  1  0.505449  0.399533  0.469220  1
