# generated using pymatgen
data_Bi2CO5
_symmetry_space_group_name_H-M   'P 1'
_cell_length_a   3.65416540
_cell_length_b   4.70371822
_cell_length_c   23.81762800
_cell_angle_alpha   90.00000000
_cell_angle_beta   89.99973345
_cell_angle_gamma   90.00000000
_symmetry_Int_Tables_number   1
_chemical_formula_structural   Bi2CO5
_chemical_formula_sum   'Bi2 C1 O5'
_cell_volume   409.38130499
_cell_formula_units_Z   1
loop_
 _symmetry_equiv_pos_site_id
 _symmetry_equiv_pos_as_xyz
  1  'x, y, z'
loop_
 _atom_site_type_symbol
 _atom_site_label
 _atom_site_symmetry_multiplicity
 _atom_site_fract_x
 _atom_site_fract_y
 _atom_site_fract_z
 _atom_site_occupancy
  Bi  Bi1  1  0.499640  0.000000  0.504553  1
  Bi  Bi2  1  0.999649  0.500000  0.603088  1
  C  C3  1  0.999772  0.500000  0.435662  1
  O  O4  1  0.999970  0.500000  0.384908  1
  O  O5  1  0.999661  0.735169  0.468122  1
  O  O6  1  0.999716  0.000000  0.581414  1
  O  O7  1  0.499642  0.500000  0.554133  1
  O  O8  1  0.999661  0.264831  0.468122  1
