# generated using pymatgen
data_VHgO3
_symmetry_space_group_name_H-M   'P 1'
_cell_length_a   3.66105154
_cell_length_b   9.94587334
_cell_length_c   24.42438892
_cell_angle_alpha   90.68198902
_cell_angle_beta   88.12618147
_cell_angle_gamma   76.58244513
_symmetry_Int_Tables_number   1
_chemical_formula_structural   VHgO3
_chemical_formula_sum   'V2 Hg2 O6'
_cell_volume   864.43821256
_cell_formula_units_Z   2
loop_
 _symmetry_equiv_pos_site_id
 _symmetry_equiv_pos_as_xyz
  1  'x, y, z'
loop_
 _atom_site_type_symbol
 _atom_site_label
 _atom_site_symmetry_multiplicity
 _atom_site_fract_x
 _atom_site_fract_y
 _atom_site_fract_z
 _atom_site_occupancy
  V  V1  1  0.209394  0.070894  0.457404  1
  V  V2  1  0.790606  0.929106  0.542596  1
  Hg  Hg3  1  0.595876  0.606261  0.521392  1
  Hg  Hg4  1  0.404124  0.393739  0.478608  1
  O  O5  1  0.107403  0.253941  0.447337  1
  O  O6  1  0.892597  0.746059  0.552663  1
  O  O7  1  0.265379  0.992772  0.398505  1
  O  O8  1  0.734621  0.007228  0.601495  1
  O  O9  1  0.709969  0.067067  0.482631  1
  O  O10  1  0.290031  0.932933  0.517369  1
