# generated using pymatgen
data_NaCSN
_symmetry_space_group_name_H-M   'P 1'
_cell_length_a   3.97154914
_cell_length_b   5.78213435
_cell_length_c   24.55985100
_cell_angle_alpha   90.00000000
_cell_angle_beta   90.00000000
_cell_angle_gamma   90.00000000
_symmetry_Int_Tables_number   1
_chemical_formula_structural   NaCSN
_chemical_formula_sum   'Na2 C2 S2 N2'
_cell_volume   563.99317248
_cell_formula_units_Z   2
loop_
 _symmetry_equiv_pos_site_id
 _symmetry_equiv_pos_as_xyz
  1  'x, y, z'
loop_
 _atom_site_type_symbol
 _atom_site_label
 _atom_site_symmetry_multiplicity
 _atom_site_fract_x
 _atom_site_fract_y
 _atom_site_fract_z
 _atom_site_occupancy
  Na  Na1  1  0.500000  0.651558  0.425071  1
  Na  Na2  1  0.000000  0.151558  0.574929  1
  C  C3  1  0.500000  0.560403  0.572100  1
  C  C4  1  -0.000000  0.060403  0.427900  1
  S  S5  1  -0.000000  0.310355  0.458791  1
  S  S6  1  0.500000  0.810355  0.541209  1
  N  N7  1  -0.000000  0.875504  0.407016  1
  N  N8  1  0.500000  0.375504  0.592984  1
