# generated using pymatgen
data_CaBi2O5
_symmetry_space_group_name_H-M   'P 1'
_cell_length_a   3.92644388
_cell_length_b   5.22751962
_cell_length_c   24.59885200
_cell_angle_alpha   90.00000000
_cell_angle_beta   90.00000000
_cell_angle_gamma   89.99556108
_symmetry_Int_Tables_number   1
_chemical_formula_structural   CaBi2O5
_chemical_formula_sum   'Ca1 Bi2 O5'
_cell_volume   504.90527082
_cell_formula_units_Z   1
loop_
 _symmetry_equiv_pos_site_id
 _symmetry_equiv_pos_as_xyz
  1  'x, y, z'
loop_
 _atom_site_type_symbol
 _atom_site_label
 _atom_site_symmetry_multiplicity
 _atom_site_fract_x
 _atom_site_fract_y
 _atom_site_fract_z
 _atom_site_occupancy
  Ca  Ca1  1  0.751347  0.132114  0.499783  1
  Bi  Bi2  1  0.252850  0.594203  0.580167  1
  Bi  Bi3  1  0.249957  0.592917  0.419790  1
  O  O4  1  0.251657  0.429490  0.500044  1
  O  O5  1  0.752861  0.438823  0.593253  1
  O  O6  1  0.750052  0.436502  0.407239  1
  O  O7  1  0.248322  0.968218  0.444994  1
  O  O8  1  0.253269  0.969153  0.554732  1
