# generated using pymatgen
data_BiAuCl6
_symmetry_space_group_name_H-M   'P 1'
_cell_length_a   10.07581290
_cell_length_b   14.16962308
_cell_length_c   31.01733127
_cell_angle_alpha   87.94025592
_cell_angle_beta   90.36914703
_cell_angle_gamma   108.94941144
_symmetry_Int_Tables_number   1
_chemical_formula_structural   BiAuCl6
_chemical_formula_sum   'Bi4 Au4 Cl24'
_cell_volume   4185.59683901
_cell_formula_units_Z   4
loop_
 _symmetry_equiv_pos_site_id
 _symmetry_equiv_pos_as_xyz
  1  'x, y, z'
loop_
 _atom_site_type_symbol
 _atom_site_label
 _atom_site_symmetry_multiplicity
 _atom_site_fract_x
 _atom_site_fract_y
 _atom_site_fract_z
 _atom_site_occupancy
  Bi  Bi1  1  0.315354  0.375884  0.500312  1
  Bi  Bi2  1  0.583047  0.889683  0.524211  1
  Bi  Bi3  1  0.684646  0.624116  0.499688  1
  Bi  Bi4  1  0.416953  0.110317  0.475789  1
  Au  Au5  1  0.695477  0.162135  0.386258  1
  Au  Au6  1  0.000000  0.500000  0.500000  1
  Au  Au7  1  0.304523  0.837865  0.613742  1
  Au  Au8  1  0.000000  -0.000000  0.500000  1
  Cl  Cl9  1  0.195581  0.060835  0.543466  1
  Cl  Cl10  1  0.071012  0.820745  0.612279  1
  Cl  Cl11  1  0.928988  0.179255  0.387721  1
  Cl  Cl12  1  0.857982  0.027250  0.553763  1
  Cl  Cl13  1  0.494095  0.285204  0.527022  1
  Cl  Cl14  1  0.454829  0.149455  0.386311  1
  Cl  Cl15  1  0.545171  0.850545  0.613689  1
  Cl  Cl16  1  0.191524  0.520915  0.544840  1
  Cl  Cl17  1  0.142018  0.972750  0.446237  1
  Cl  Cl18  1  0.104002  0.430261  0.448862  1
  Cl  Cl19  1  0.804419  0.939165  0.456534  1
  Cl  Cl20  1  0.480978  0.477004  0.442047  1
  Cl  Cl21  1  0.684392  0.125016  0.315143  1
  Cl  Cl22  1  0.227376  0.229468  0.449233  1
  Cl  Cl23  1  0.895998  0.569739  0.551138  1
  Cl  Cl24  1  0.505905  0.714796  0.472978  1
  Cl  Cl25  1  0.703277  0.197859  0.460478  1
  Cl  Cl26  1  0.532295  0.057225  0.549732  1
  Cl  Cl27  1  0.467705  0.942775  0.450268  1
  Cl  Cl28  1  0.296723  0.802141  0.539522  1
  Cl  Cl29  1  0.315608  0.874985  0.684857  1
  Cl  Cl30  1  0.519022  0.522996  0.557953  1
  Cl  Cl31  1  0.808476  0.479085  0.455160  1
  Cl  Cl32  1  0.772624  0.770532  0.550767  1
