# generated using pymatgen
data_ScHO2
_symmetry_space_group_name_H-M   'P 1'
_cell_length_a   3.27939330
_cell_length_b   4.00977386
_cell_length_c   26.10339000
_cell_angle_alpha   90.00000000
_cell_angle_beta   90.00000000
_cell_angle_gamma   90.00000000
_symmetry_Int_Tables_number   1
_chemical_formula_structural   ScHO2
_chemical_formula_sum   'Sc2 H2 O4'
_cell_volume   343.24980359
_cell_formula_units_Z   2
loop_
 _symmetry_equiv_pos_site_id
 _symmetry_equiv_pos_as_xyz
  1  'x, y, z'
loop_
 _atom_site_type_symbol
 _atom_site_label
 _atom_site_symmetry_multiplicity
 _atom_site_fract_x
 _atom_site_fract_y
 _atom_site_fract_z
 _atom_site_occupancy
  Sc  Sc1  1  -0.000000  0.247354  0.537174  1
  Sc  Sc2  1  0.500000  0.747354  0.462826  1
  H  H3  1  0.500000  0.426420  0.617494  1
  H  H4  1  0.000000  0.926420  0.382506  1
  O  O5  1  0.500000  0.248295  0.483491  1
  O  O6  1  -0.000000  0.748295  0.516509  1
  O  O7  1  0.500000  0.267332  0.589435  1
  O  O8  1  0.000000  0.767332  0.410565  1
