# generated using pymatgen
data_Sn2IF3
_symmetry_space_group_name_H-M   'P 1'
_cell_length_a   4.29673771
_cell_length_b   8.87739391
_cell_length_c   27.25315900
_cell_angle_alpha   90.00000000
_cell_angle_beta   90.00000000
_cell_angle_gamma   90.00000000
_symmetry_Int_Tables_number   1
_chemical_formula_structural   Sn2IF3
_chemical_formula_sum   'Sn4 I2 F6'
_cell_volume   1039.53995051
_cell_formula_units_Z   2
loop_
 _symmetry_equiv_pos_site_id
 _symmetry_equiv_pos_as_xyz
  1  'x, y, z'
loop_
 _atom_site_type_symbol
 _atom_site_label
 _atom_site_symmetry_multiplicity
 _atom_site_fract_x
 _atom_site_fract_y
 _atom_site_fract_z
 _atom_site_occupancy
  Sn  Sn1  1  0.484343  0.212948  0.558356  1
  Sn  Sn2  1  0.515657  0.787052  0.558356  1
  Sn  Sn3  1  0.984343  0.287052  0.441644  1
  Sn  Sn4  1  0.015657  0.712948  0.441644  1
  I  I5  1  0.500000  0.500000  0.373355  1
  I  I6  1  0.000000  -0.000000  0.626645  1
  F  F7  1  0.500000  0.000000  0.520739  1
  F  F8  1  0.000000  0.500000  0.479261  1
  F  F9  1  0.994376  0.213535  0.522313  1
  F  F10  1  0.494376  0.286465  0.477687  1
  F  F11  1  0.005624  0.786465  0.522313  1
  F  F12  1  0.505624  0.713535  0.477687  1
