# generated using pymatgen
data_W(OF)2
_symmetry_space_group_name_H-M   'P 1'
_cell_length_a   3.86492367
_cell_length_b   3.86492314
_cell_length_c   23.76794800
_cell_angle_alpha   90.00000000
_cell_angle_beta   90.00000000
_cell_angle_gamma   90.07290900
_symmetry_Int_Tables_number   1
_chemical_formula_structural   W(OF)2
_chemical_formula_sum   'W1 O2 F2'
_cell_volume   355.03659510
_cell_formula_units_Z   1
loop_
 _symmetry_equiv_pos_site_id
 _symmetry_equiv_pos_as_xyz
  1  'x, y, z'
loop_
 _atom_site_type_symbol
 _atom_site_label
 _atom_site_symmetry_multiplicity
 _atom_site_fract_x
 _atom_site_fract_y
 _atom_site_fract_z
 _atom_site_occupancy
  W  W1  1  0.721231  0.721231  0.500000  1
  O  O2  1  0.243818  0.744259  0.500000  1
  O  O3  1  0.744259  0.243818  0.500000  1
  F  F4  1  0.758810  0.758810  0.579336  1
  F  F5  1  0.758810  0.758810  0.420664  1
