# generated using pymatgen
data_Bi2Pt
_symmetry_space_group_name_H-M   'P 1'
_cell_length_a   6.61299152
_cell_length_b   6.61314134
_cell_length_c   23.84959500
_cell_angle_alpha   90.00000000
_cell_angle_beta   90.00000000
_cell_angle_gamma   119.99925547
_symmetry_Int_Tables_number   1
_chemical_formula_structural   Bi2Pt
_chemical_formula_sum   'Bi6 Pt3'
_cell_volume   903.27641201
_cell_formula_units_Z   3
loop_
 _symmetry_equiv_pos_site_id
 _symmetry_equiv_pos_as_xyz
  1  'x, y, z'
loop_
 _atom_site_type_symbol
 _atom_site_label
 _atom_site_symmetry_multiplicity
 _atom_site_fract_x
 _atom_site_fract_y
 _atom_site_fract_z
 _atom_site_occupancy
  Bi  Bi1  1  0.000143  0.000000  0.406448  1
  Bi  Bi2  1  0.333251  0.666641  0.443328  1
  Bi  Bi3  1  0.666609  0.333359  0.443328  1
  Bi  Bi4  1  0.397837  0.397864  0.570241  1
  Bi  Bi5  1  0.999973  0.602136  0.570241  1
  Bi  Bi6  1  0.602220  0.000000  0.570244  1
  Pt  Pt7  1  0.739828  0.739881  0.498712  1
  Pt  Pt8  1  0.999947  0.260119  0.498712  1
  Pt  Pt9  1  0.260152  1.000000  0.498748  1
