# generated using pymatgen
data_TiF4
_symmetry_space_group_name_H-M   'P 1'
_cell_length_a   5.15900866
_cell_length_b   5.45899043
_cell_length_c   22.75598800
_cell_angle_alpha   90.00000000
_cell_angle_beta   90.00000000
_cell_angle_gamma   87.56941344
_symmetry_Int_Tables_number   1
_chemical_formula_structural   TiF4
_chemical_formula_sum   'Ti2 F8'
_cell_volume   640.29983529
_cell_formula_units_Z   2
loop_
 _symmetry_equiv_pos_site_id
 _symmetry_equiv_pos_as_xyz
  1  'x, y, z'
loop_
 _atom_site_type_symbol
 _atom_site_label
 _atom_site_symmetry_multiplicity
 _atom_site_fract_x
 _atom_site_fract_y
 _atom_site_fract_z
 _atom_site_occupancy
  Ti  Ti1  1  0.994868  0.470847  0.500360  1
  Ti  Ti2  1  0.429642  0.897823  0.499596  1
  F  F3  1  0.177416  0.750072  0.548503  1
  F  F4  1  0.261323  0.624108  0.452375  1
  F  F5  1  0.877947  0.266905  0.447103  1
  F  F6  1  0.741382  0.731164  0.467802  1
  F  F7  1  0.769245  0.461049  0.558855  1
  F  F8  1  0.637798  0.984825  0.556689  1
  F  F9  1  0.220306  0.226359  0.532078  1
  F  F10  1  0.401152  0.086444  0.436639  1
