# generated using pymatgen
data_Hg2MoO4
_symmetry_space_group_name_H-M   'P 1'
_cell_length_a   5.00991553
_cell_length_b   7.99891258
_cell_length_c   24.60339600
_cell_angle_alpha   90.00000000
_cell_angle_beta   90.00000000
_cell_angle_gamma   99.03424836
_symmetry_Int_Tables_number   1
_chemical_formula_structural   Hg2MoO4
_chemical_formula_sum   'Hg4 Mo2 O8'
_cell_volume   973.72235741
_cell_formula_units_Z   2
loop_
 _symmetry_equiv_pos_site_id
 _symmetry_equiv_pos_as_xyz
  1  'x, y, z'
loop_
 _atom_site_type_symbol
 _atom_site_label
 _atom_site_symmetry_multiplicity
 _atom_site_fract_x
 _atom_site_fract_y
 _atom_site_fract_z
 _atom_site_occupancy
  Hg  Hg1  1  0.679771  0.149143  0.445261  1
  Hg  Hg2  1  0.820229  0.850857  0.445261  1
  Hg  Hg3  1  0.320229  0.850857  0.554739  1
  Hg  Hg4  1  0.179771  0.149143  0.554739  1
  Mo  Mo5  1  0.750000  0.500000  0.549029  1
  Mo  Mo6  1  0.250000  0.500000  0.450971  1
  O  O7  1  0.058727  0.354748  0.406672  1
  O  O8  1  0.941273  0.645253  0.593328  1
  O  O9  1  0.488247  0.637718  0.523050  1
  O  O10  1  0.988247  0.637718  0.476950  1
  O  O11  1  0.558727  0.354748  0.593328  1
  O  O12  1  0.011753  0.362282  0.523050  1
  O  O13  1  0.511753  0.362282  0.476950  1
  O  O14  1  0.441273  0.645253  0.406672  1
