# generated using pymatgen
data_CuSe2Br
_symmetry_space_group_name_H-M   'P 1'
_cell_length_a   4.93934081
_cell_length_b   7.80338069
_cell_length_c   23.08857000
_cell_angle_alpha   90.00000000
_cell_angle_beta   90.00000000
_cell_angle_gamma   90.00000000
_symmetry_Int_Tables_number   1
_chemical_formula_structural   CuSe2Br
_chemical_formula_sum   'Cu2 Se4 Br2'
_cell_volume   889.91560687
_cell_formula_units_Z   2
loop_
 _symmetry_equiv_pos_site_id
 _symmetry_equiv_pos_as_xyz
  1  'x, y, z'
loop_
 _atom_site_type_symbol
 _atom_site_label
 _atom_site_symmetry_multiplicity
 _atom_site_fract_x
 _atom_site_fract_y
 _atom_site_fract_z
 _atom_site_occupancy
  Cu  Cu1  1  0.637206  0.820995  0.499696  1
  Cu  Cu2  1  0.137206  0.179005  0.500304  1
  Se  Se3  1  0.965918  0.637008  0.455982  1
  Se  Se4  1  0.465918  0.362992  0.544018  1
  Se  Se5  1  0.803870  0.359518  0.457311  1
  Se  Se6  1  0.303870  0.640482  0.542689  1
  Br  Br7  1  0.389188  0.002737  0.431701  1
  Br  Br8  1  0.889188  0.997263  0.568299  1
