# generated using pymatgen
data_K2CoSe2
_symmetry_space_group_name_H-M   'P 1'
_cell_length_a   6.18897183
_cell_length_b   6.65657290
_cell_length_c   24.08665883
_cell_angle_alpha   90.00000000
_cell_angle_beta   90.00000000
_cell_angle_gamma   90.00000000
_symmetry_Int_Tables_number   1
_chemical_formula_structural   K2CoSe2
_chemical_formula_sum   'K4 Co2 Se4'
_cell_volume   992.30632537
_cell_formula_units_Z   2
loop_
 _symmetry_equiv_pos_site_id
 _symmetry_equiv_pos_as_xyz
  1  'x, y, z'
loop_
 _atom_site_type_symbol
 _atom_site_label
 _atom_site_symmetry_multiplicity
 _atom_site_fract_x
 _atom_site_fract_y
 _atom_site_fract_z
 _atom_site_occupancy
  K  K1  1  -0.000000  0.686132  0.419054  1
  K  K2  1  -0.000000  0.313868  0.580946  1
  K  K3  1  0.500000  0.686132  0.580946  1
  K  K4  1  0.500000  0.313868  0.419054  1
  Co  Co5  1  0.250000  -0.000000  0.500000  1
  Co  Co6  1  0.750000  -0.000000  0.500000  1
  Se  Se7  1  -0.000000  0.806955  0.556530  1
  Se  Se8  1  -0.000000  0.193045  0.443470  1
  Se  Se9  1  0.500000  0.806955  0.443470  1
  Se  Se10  1  0.500000  0.193045  0.556530  1
