# generated using pymatgen
data_AgClO4
_symmetry_space_group_name_H-M   'P 1'
_cell_length_a   4.78899688
_cell_length_b   4.78899688
_cell_length_c   21.72601500
_cell_angle_alpha   90.00000000
_cell_angle_beta   90.00000000
_cell_angle_gamma   90.00000000
_symmetry_Int_Tables_number   1
_chemical_formula_structural   AgClO4
_chemical_formula_sum   'Ag1 Cl1 O4'
_cell_volume   498.27509802
_cell_formula_units_Z   1
loop_
 _symmetry_equiv_pos_site_id
 _symmetry_equiv_pos_as_xyz
  1  'x, y, z'
loop_
 _atom_site_type_symbol
 _atom_site_label
 _atom_site_symmetry_multiplicity
 _atom_site_fract_x
 _atom_site_fract_y
 _atom_site_fract_z
 _atom_site_occupancy
  Ag  Ag1  1  0.500000  0.500000  0.500000  1
  Cl  Cl2  1  -0.000000  0.000000  0.500000  1
  O  O3  1  0.174094  0.825906  0.539725  1
  O  O4  1  0.825906  0.825906  0.460275  1
  O  O5  1  0.825906  0.174094  0.539725  1
  O  O6  1  0.174094  0.174094  0.460275  1
