# generated using pymatgen
data_LaBiS2O
_symmetry_space_group_name_H-M   'P 1'
_cell_length_a   4.03974606
_cell_length_b   4.03974606
_cell_length_c   31.05571300
_cell_angle_alpha   90.00000000
_cell_angle_beta   90.00000000
_cell_angle_gamma   90.00000000
_symmetry_Int_Tables_number   1
_chemical_formula_structural   LaBiS2O
_chemical_formula_sum   'La2 Bi2 S4 O2'
_cell_volume   506.81520610
_cell_formula_units_Z   2
loop_
 _symmetry_equiv_pos_site_id
 _symmetry_equiv_pos_as_xyz
  1  'x, y, z'
loop_
 _atom_site_type_symbol
 _atom_site_label
 _atom_site_symmetry_multiplicity
 _atom_site_fract_x
 _atom_site_fract_y
 _atom_site_fract_z
 _atom_site_occupancy
  La  La1  1  -0.000000  0.500000  0.459220  1
  La  La2  1  0.500000  -0.000000  0.540779  1
  Bi  Bi3  1  0.500000  -0.000000  0.332397  1
  Bi  Bi4  1  0.000000  0.500000  0.667603  1
  S  S5  1  0.000000  0.500000  0.322037  1
  S  S6  1  0.500000  -0.000000  0.677963  1
  S  S7  1  0.500000  0.000000  0.413244  1
  S  S8  1  0.000000  0.500000  0.586756  1
  O  O9  1  0.000000  0.000000  0.500000  1
  O  O10  1  0.500000  0.500000  0.500000  1
