# generated using pymatgen
data_Er2Mg2Ru
_symmetry_space_group_name_H-M   'P 1'
_cell_length_a   3.33585223
_cell_length_b   3.33585223
_cell_length_c   28.36005800
_cell_angle_alpha   90.00000000
_cell_angle_beta   90.00000000
_cell_angle_gamma   90.00000000
_symmetry_Int_Tables_number   1
_chemical_formula_structural   Er2Mg2Ru
_chemical_formula_sum   'Er2 Mg2 Ru1'
_cell_volume   315.58817587
_cell_formula_units_Z   1
loop_
 _symmetry_equiv_pos_site_id
 _symmetry_equiv_pos_as_xyz
  1  'x, y, z'
loop_
 _atom_site_type_symbol
 _atom_site_label
 _atom_site_symmetry_multiplicity
 _atom_site_fract_x
 _atom_site_fract_y
 _atom_site_fract_z
 _atom_site_occupancy
  Er  Er1  1  -0.000000  0.000000  0.441524  1
  Er  Er2  1  0.000000  0.000000  0.558476  1
  Mg  Mg3  1  0.500000  0.500000  0.645076  1
  Mg  Mg4  1  0.500000  0.500000  0.354924  1
  Ru  Ru5  1  0.500000  0.500000  0.500000  1
