# generated using pymatgen
data_Hg2GeO4
_symmetry_space_group_name_H-M   'P 1'
_cell_length_a   6.51340781
_cell_length_b   6.51340743
_cell_length_c   22.26330000
_cell_angle_alpha   90.00000000
_cell_angle_beta   90.00000000
_cell_angle_gamma   119.93775945
_symmetry_Int_Tables_number   1
_chemical_formula_structural   Hg2GeO4
_chemical_formula_sum   'Hg2 Ge1 O4'
_cell_volume   818.48122987
_cell_formula_units_Z   1
loop_
 _symmetry_equiv_pos_site_id
 _symmetry_equiv_pos_as_xyz
  1  'x, y, z'
loop_
 _atom_site_type_symbol
 _atom_site_label
 _atom_site_symmetry_multiplicity
 _atom_site_fract_x
 _atom_site_fract_y
 _atom_site_fract_z
 _atom_site_occupancy
  Hg  Hg1  1  0.500000  -0.000000  0.542122  1
  Hg  Hg2  1  -0.000000  0.500000  0.457878  1
  Ge  Ge3  1  -0.000000  0.000000  0.500000  1
  O  O4  1  0.930936  0.763882  0.448955  1
  O  O5  1  0.763882  0.930936  0.551045  1
  O  O6  1  0.236119  0.069065  0.551045  1
  O  O7  1  0.069065  0.236119  0.448955  1
