# generated using pymatgen
data_Xe(OF)2
_symmetry_space_group_name_H-M   'P 1'
_cell_length_a   4.45330556
_cell_length_b   4.45330559
_cell_length_c   24.08604600
_cell_angle_alpha   90.00000000
_cell_angle_beta   90.00000000
_cell_angle_gamma   92.87839731
_symmetry_Int_Tables_number   1
_chemical_formula_structural   Xe(OF)2
_chemical_formula_sum   'Xe1 O2 F2'
_cell_volume   477.07014064
_cell_formula_units_Z   1
loop_
 _symmetry_equiv_pos_site_id
 _symmetry_equiv_pos_as_xyz
  1  'x, y, z'
loop_
 _atom_site_type_symbol
 _atom_site_label
 _atom_site_symmetry_multiplicity
 _atom_site_fract_x
 _atom_site_fract_y
 _atom_site_fract_z
 _atom_site_occupancy
  Xe  Xe1  1  0.735004  0.264996  0.500000  1
  O  O2  1  0.318171  0.183501  0.500000  1
  O  O3  1  0.816499  0.681829  0.500000  1
  F  F4  1  0.751646  0.248354  0.584495  1
  F  F5  1  0.751646  0.248354  0.415505  1
