# generated using pymatgen
data_Mn(InSe2)2
_symmetry_space_group_name_H-M   'P 1'
_cell_length_a   4.15135457
_cell_length_b   4.15135516
_cell_length_c   29.80906000
_cell_angle_alpha   90.00000000
_cell_angle_beta   90.00000000
_cell_angle_gamma   60.00000477
_symmetry_Int_Tables_number   1
_chemical_formula_structural   Mn(InSe2)2
_chemical_formula_sum   'Mn1 In2 Se4'
_cell_volume   444.89615460
_cell_formula_units_Z   1
loop_
 _symmetry_equiv_pos_site_id
 _symmetry_equiv_pos_as_xyz
  1  'x, y, z'
loop_
 _atom_site_type_symbol
 _atom_site_label
 _atom_site_symmetry_multiplicity
 _atom_site_fract_x
 _atom_site_fract_y
 _atom_site_fract_z
 _atom_site_occupancy
  Mn  Mn1  1  0.666667  0.666667  0.361666  1
  In  In2  1  0.000000  0.000000  0.493905  1
  In  In3  1  0.333333  0.333333  0.633983  1
  Se  Se4  1  0.000000  0.000000  0.341590  1
  Se  Se5  1  0.000000  0.000000  0.673537  1
  Se  Se6  1  0.666667  0.666667  0.448161  1
  Se  Se7  1  0.333333  0.333333  0.547159  1
