# generated using pymatgen
data_Mg(AlH4)2
_symmetry_space_group_name_H-M   'P 1'
_cell_length_a   5.21844318
_cell_length_b   5.21844272
_cell_length_c   26.76238300
_cell_angle_alpha   90.00000000
_cell_angle_beta   90.00000000
_cell_angle_gamma   119.99999657
_symmetry_Int_Tables_number   1
_chemical_formula_structural   Mg(AlH4)2
_chemical_formula_sum   'Mg1 Al2 H8'
_cell_volume   631.15686202
_cell_formula_units_Z   1
loop_
 _symmetry_equiv_pos_site_id
 _symmetry_equiv_pos_as_xyz
  1  'x, y, z'
loop_
 _atom_site_type_symbol
 _atom_site_label
 _atom_site_symmetry_multiplicity
 _atom_site_fract_x
 _atom_site_fract_y
 _atom_site_fract_z
 _atom_site_occupancy
  Mg  Mg1  1  -0.000000  -0.000000  0.500000  1
  Al  Al2  1  0.333333  0.666667  0.567705  1
  Al  Al3  1  0.666667  0.333333  0.432295  1
  H  H4  1  0.336965  0.168482  0.457569  1
  H  H5  1  0.831518  0.663035  0.457569  1
  H  H6  1  0.831518  0.168482  0.457569  1
  H  H7  1  0.333333  0.666667  0.626943  1
  H  H8  1  0.666667  0.333333  0.373057  1
  H  H9  1  0.663035  0.831518  0.542431  1
  H  H10  1  0.168482  0.336965  0.542431  1
  H  H11  1  0.168482  0.831518  0.542431  1
