# generated using pymatgen
data_LuPb2
_symmetry_space_group_name_H-M   'P 1'
_cell_length_a   3.70793617
_cell_length_b   3.70793617
_cell_length_c   23.77951000
_cell_angle_alpha   90.00000000
_cell_angle_beta   90.00000000
_cell_angle_gamma   90.00000000
_symmetry_Int_Tables_number   1
_chemical_formula_structural   LuPb2
_chemical_formula_sum   'Lu1 Pb2'
_cell_volume   326.93950453
_cell_formula_units_Z   1
loop_
 _symmetry_equiv_pos_site_id
 _symmetry_equiv_pos_as_xyz
  1  'x, y, z'
loop_
 _atom_site_type_symbol
 _atom_site_label
 _atom_site_symmetry_multiplicity
 _atom_site_fract_x
 _atom_site_fract_y
 _atom_site_fract_z
 _atom_site_occupancy
  Lu  Lu1  1  -0.000000  -0.000000  0.500000  1
  Pb  Pb2  1  0.500000  0.500000  0.578066  1
  Pb  Pb3  1  0.500000  0.500000  0.421934  1
