# generated using pymatgen
data_PtI4
_symmetry_space_group_name_H-M   'P 1'
_cell_length_a   6.85782674
_cell_length_b   15.63074265
_cell_length_c   25.45044800
_cell_angle_alpha   90.00000000
_cell_angle_beta   90.00000000
_cell_angle_gamma   90.00000000
_symmetry_Int_Tables_number   1
_chemical_formula_structural   PtI4
_chemical_formula_sum   'Pt4 I16'
_cell_volume   2728.10796142
_cell_formula_units_Z   4
loop_
 _symmetry_equiv_pos_site_id
 _symmetry_equiv_pos_as_xyz
  1  'x, y, z'
loop_
 _atom_site_type_symbol
 _atom_site_label
 _atom_site_symmetry_multiplicity
 _atom_site_fract_x
 _atom_site_fract_y
 _atom_site_fract_z
 _atom_site_occupancy
  Pt  Pt1  1  0.596441  0.812228  0.455129  1
  Pt  Pt2  1  0.096441  0.187772  0.544871  1
  Pt  Pt3  1  0.596441  0.312228  0.544871  1
  Pt  Pt4  1  0.096441  0.687772  0.455129  1
  I  I5  1  0.744147  0.936153  0.393589  1
  I  I6  1  0.277630  0.316177  0.606068  1
  I  I7  1  0.444832  0.930331  0.521942  1
  I  I8  1  0.244147  0.563847  0.393589  1
  I  I9  1  0.922365  0.310867  0.486185  1
  I  I10  1  0.444832  0.430331  0.478058  1
  I  I11  1  0.422365  0.189133  0.486185  1
  I  I12  1  0.922365  0.810867  0.513815  1
  I  I13  1  0.777630  0.683823  0.393932  1
  I  I14  1  0.944832  0.569669  0.521942  1
  I  I15  1  0.277630  0.816177  0.393932  1
  I  I16  1  0.244147  0.063847  0.606411  1
  I  I17  1  0.422365  0.689133  0.513815  1
  I  I18  1  0.944832  0.069668  0.478058  1
  I  I19  1  0.744147  0.436153  0.606411  1
  I  I20  1  0.777630  0.183823  0.606068  1
