# generated using pymatgen
data_SrMg2
_symmetry_space_group_name_H-M   'P 1'
_cell_length_a   3.56627931
_cell_length_b   5.78977095
_cell_length_c   28.55366400
_cell_angle_alpha   90.00000000
_cell_angle_beta   90.00000000
_cell_angle_gamma   90.00000000
_symmetry_Int_Tables_number   1
_chemical_formula_structural   SrMg2
_chemical_formula_sum   'Sr2 Mg4'
_cell_volume   589.57435101
_cell_formula_units_Z   2
loop_
 _symmetry_equiv_pos_site_id
 _symmetry_equiv_pos_as_xyz
  1  'x, y, z'
loop_
 _atom_site_type_symbol
 _atom_site_label
 _atom_site_symmetry_multiplicity
 _atom_site_fract_x
 _atom_site_fract_y
 _atom_site_fract_z
 _atom_site_occupancy
  Sr  Sr1  1  0.500000  0.750000  0.461007  1
  Sr  Sr2  1  0.500000  0.250000  0.538993  1
  Mg  Mg3  1  0.000000  0.750000  0.359319  1
  Mg  Mg4  1  -0.000000  0.250000  0.417506  1
  Mg  Mg5  1  -0.000000  0.750000  0.582494  1
  Mg  Mg6  1  -0.000000  0.250000  0.640681  1
