# generated using pymatgen
data_BiF5
_symmetry_space_group_name_H-M   'P 1'
_cell_length_a   3.89563230
_cell_length_b   4.71789960
_cell_length_c   24.01363511
_cell_angle_alpha   90.00000000
_cell_angle_beta   90.00000000
_cell_angle_gamma   90.00000000
_symmetry_Int_Tables_number   1
_chemical_formula_structural   BiF5
_chemical_formula_sum   'Bi1 F5'
_cell_volume   441.35145212
_cell_formula_units_Z   1
loop_
 _symmetry_equiv_pos_site_id
 _symmetry_equiv_pos_as_xyz
  1  'x, y, z'
loop_
 _atom_site_type_symbol
 _atom_site_label
 _atom_site_symmetry_multiplicity
 _atom_site_fract_x
 _atom_site_fract_y
 _atom_site_fract_z
 _atom_site_occupancy
  Bi  Bi1  1  -0.000000  -0.000000  0.500000  1
  F  F2  1  0.500000  0.240179  0.500000  1
  F  F3  1  0.500000  0.759821  0.500000  1
  F  F4  1  0.000000  -0.000000  0.584066  1
  F  F5  1  0.000000  -0.000000  0.415934  1
  F  F6  1  0.000000  0.500000  0.500000  1
