# generated using pymatgen
data_Ba2InBrO3
_symmetry_space_group_name_H-M   'P 1'
_cell_length_a   4.27111991
_cell_length_b   4.27111991
_cell_length_c   33.35043600
_cell_angle_alpha   90.00000000
_cell_angle_beta   90.00000000
_cell_angle_gamma   90.00000000
_symmetry_Int_Tables_number   1
_chemical_formula_structural   Ba2InBrO3
_chemical_formula_sum   'Ba4 In2 Br2 O6'
_cell_volume   608.39417099
_cell_formula_units_Z   2
loop_
 _symmetry_equiv_pos_site_id
 _symmetry_equiv_pos_as_xyz
  1  'x, y, z'
loop_
 _atom_site_type_symbol
 _atom_site_label
 _atom_site_symmetry_multiplicity
 _atom_site_fract_x
 _atom_site_fract_y
 _atom_site_fract_z
 _atom_site_occupancy
  Ba  Ba1  1  0.500000  -0.000000  0.660182  1
  Ba  Ba2  1  -0.000000  0.500000  0.339818  1
  Ba  Ba3  1  0.000000  0.500000  0.456665  1
  Ba  Ba4  1  0.500000  -0.000000  0.543335  1
  In  In5  1  0.500000  -0.000000  0.402552  1
  In  In6  1  0.000000  0.500000  0.597448  1
  Br  Br7  1  -0.000000  0.500000  0.700835  1
  Br  Br8  1  0.500000  0.000000  0.299165  1
  O  O9  1  -0.000000  -0.000000  0.608226  1
  O  O10  1  0.500000  0.500000  0.608226  1
  O  O11  1  -0.000000  -0.000000  0.391774  1
  O  O12  1  -0.000000  0.500000  0.534052  1
  O  O13  1  0.500000  0.500000  0.391774  1
  O  O14  1  0.500000  -0.000000  0.465948  1
