# generated using pymatgen
data_Ba2Tl2CuO6
_symmetry_space_group_name_H-M   'P 1'
_cell_length_a   3.93510863
_cell_length_b   3.93510863
_cell_length_c   33.44830089
_cell_angle_alpha   90.00000000
_cell_angle_beta   90.00000000
_cell_angle_gamma   90.00000000
_symmetry_Int_Tables_number   1
_chemical_formula_structural   Ba2Tl2CuO6
_chemical_formula_sum   'Ba2 Tl2 Cu1 O6'
_cell_volume   517.94961280
_cell_formula_units_Z   1
loop_
 _symmetry_equiv_pos_site_id
 _symmetry_equiv_pos_as_xyz
  1  'x, y, z'
loop_
 _atom_site_type_symbol
 _atom_site_label
 _atom_site_symmetry_multiplicity
 _atom_site_fract_x
 _atom_site_fract_y
 _atom_site_fract_z
 _atom_site_occupancy
  Ba  Ba1  1  -0.000000  0.000000  0.556936  1
  Ba  Ba2  1  0.000000  -0.000000  0.443064  1
  Tl  Tl3  1  0.500000  0.500000  0.353985  1
  Tl  Tl4  1  0.500000  0.500000  0.646015  1
  Cu  Cu5  1  0.500000  0.500000  0.500000  1
  O  O6  1  0.500000  0.500000  0.297585  1
  O  O7  1  0.500000  0.500000  0.702415  1
  O  O8  1  0.500000  0.500000  0.584543  1
  O  O9  1  0.500000  0.500000  0.415457  1
  O  O10  1  0.000000  0.500000  0.500000  1
  O  O11  1  0.500000  -0.000000  0.500000  1
