# generated using pymatgen
data_ThSe3
_symmetry_space_group_name_H-M   'P 1'
_cell_length_a   4.23982496
_cell_length_b   5.79637173
_cell_length_c   26.58183300
_cell_angle_alpha   90.00000000
_cell_angle_beta   90.00000000
_cell_angle_gamma   90.00000000
_symmetry_Int_Tables_number   1
_chemical_formula_structural   ThSe3
_chemical_formula_sum   'Th2 Se6'
_cell_volume   653.26453597
_cell_formula_units_Z   2
loop_
 _symmetry_equiv_pos_site_id
 _symmetry_equiv_pos_as_xyz
  1  'x, y, z'
loop_
 _atom_site_type_symbol
 _atom_site_label
 _atom_site_symmetry_multiplicity
 _atom_site_fract_x
 _atom_site_fract_y
 _atom_site_fract_z
 _atom_site_occupancy
  Th  Th1  1  0.750000  0.606508  0.442799  1
  Th  Th2  1  0.250000  0.107345  0.557201  1
  Se  Se3  1  0.750000  0.107435  0.477740  1
  Se  Se4  1  0.250000  0.606418  0.522260  1
  Se  Se5  1  0.750000  0.892815  0.620729  1
  Se  Se6  1  0.250000  0.821038  0.379271  1
  Se  Se7  1  0.750000  0.308570  0.623680  1
  Se  Se8  1  0.250000  0.405282  0.376320  1
