# generated using pymatgen
data_NiS2
_symmetry_space_group_name_H-M   'P 1'
_cell_length_a   5.19404975
_cell_length_b   5.32037408
_cell_length_c   21.10219600
_cell_angle_alpha   90.00000000
_cell_angle_beta   90.00000000
_cell_angle_gamma   89.99532583
_symmetry_Int_Tables_number   1
_chemical_formula_structural   NiS2
_chemical_formula_sum   'Ni2 S4'
_cell_volume   583.14415305
_cell_formula_units_Z   2
loop_
 _symmetry_equiv_pos_site_id
 _symmetry_equiv_pos_as_xyz
  1  'x, y, z'
loop_
 _atom_site_type_symbol
 _atom_site_label
 _atom_site_symmetry_multiplicity
 _atom_site_fract_x
 _atom_site_fract_y
 _atom_site_fract_z
 _atom_site_occupancy
  Ni  Ni1  1  0.166464  0.074430  0.500154  1
  Ni  Ni2  1  0.666359  0.574309  0.499881  1
  S  S3  1  0.051481  0.697544  0.527948  1
  S  S4  1  0.781088  0.197820  0.528129  1
  S  S5  1  0.281152  0.450800  0.471866  1
  S  S6  1  0.551487  0.951126  0.472021  1
