# generated using pymatgen
data_MnPSe3
_symmetry_space_group_name_H-M   'P 1'
_cell_length_a   6.40488554
_cell_length_b   6.40488518
_cell_length_c   23.41156667
_cell_angle_alpha   90.00000000
_cell_angle_beta   90.00000000
_cell_angle_gamma   60.00000327
_symmetry_Int_Tables_number   1
_chemical_formula_structural   MnPSe3
_chemical_formula_sum   'Mn2 P2 Se6'
_cell_volume   831.73283127
_cell_formula_units_Z   2
loop_
 _symmetry_equiv_pos_site_id
 _symmetry_equiv_pos_as_xyz
  1  'x, y, z'
loop_
 _atom_site_type_symbol
 _atom_site_label
 _atom_site_symmetry_multiplicity
 _atom_site_fract_x
 _atom_site_fract_y
 _atom_site_fract_z
 _atom_site_occupancy
  Mn  Mn1  1  0.333333  0.333333  0.500231  1
  Mn  Mn2  1  0.666667  0.666667  0.499769  1
  P  P3  1  0.000000  0.000000  0.452105  1
  P  P4  1  0.000000  0.000000  0.547895  1
  Se  Se5  1  0.335355  0.999158  0.573027  1
  Se  Se6  1  0.999158  0.665487  0.573027  1
  Se  Se7  1  0.665487  0.335355  0.573027  1
  Se  Se8  1  0.664645  0.000842  0.426973  1
  Se  Se9  1  0.000842  0.334513  0.426973  1
  Se  Se10  1  0.334513  0.664645  0.426973  1
