# generated using pymatgen
data_Sc2Te5O13
_symmetry_space_group_name_H-M   'P 1'
_cell_length_a   6.62722823
_cell_length_b   8.60327150
_cell_length_c   30.94171000
_cell_angle_alpha   90.00000000
_cell_angle_beta   90.00000000
_cell_angle_gamma   73.62759639
_symmetry_Int_Tables_number   1
_chemical_formula_structural   Sc2Te5O13
_chemical_formula_sum   'Sc4 Te10 O26'
_cell_volume   1692.63044276
_cell_formula_units_Z   2
loop_
 _symmetry_equiv_pos_site_id
 _symmetry_equiv_pos_as_xyz
  1  'x, y, z'
loop_
 _atom_site_type_symbol
 _atom_site_label
 _atom_site_symmetry_multiplicity
 _atom_site_fract_x
 _atom_site_fract_y
 _atom_site_fract_z
 _atom_site_occupancy
  Sc  Sc1  1  0.465710  0.737610  0.414733  1
  Sc  Sc2  1  0.534290  0.262390  0.585267  1
  Sc  Sc3  1  0.935447  0.943355  0.434693  1
  Sc  Sc4  1  0.064553  0.056645  0.565307  1
  Te  Te5  1  0.975616  0.432583  0.600844  1
  Te  Te6  1  0.362135  0.721683  0.621049  1
  Te  Te7  1  0.277641  0.140056  0.673885  1
  Te  Te8  1  0.217190  0.617810  0.507937  1
  Te  Te9  1  0.345875  0.134626  0.466342  1
  Te  Te10  1  0.637865  0.278317  0.378951  1
  Te  Te11  1  0.782810  0.382190  0.492063  1
  Te  Te12  1  0.024384  0.567417  0.399156  1
  Te  Te13  1  0.654125  0.865374  0.533658  1
  Te  Te14  1  0.722359  0.859944  0.326115  1
  O  O15  1  0.919610  0.654233  0.335410  1
  O  O16  1  0.983034  0.180142  0.506348  1
  O  O17  1  0.016966  0.819858  0.493652  1
  O  O18  1  0.785922  0.719024  0.423595  1
  O  O19  1  0.363860  0.004067  0.530459  1
  O  O20  1  0.593805  0.779918  0.595706  1
  O  O21  1  0.842180  0.265255  0.597403  1
  O  O22  1  0.214078  0.280976  0.576405  1
  O  O23  1  0.191960  0.014520  0.630753  1
  O  O24  1  0.406195  0.220082  0.404294  1
  O  O25  1  0.137194  0.493085  0.460226  1
  O  O26  1  0.484018  0.830468  0.352598  1
  O  O27  1  0.837986  0.204667  0.423862  1
  O  O28  1  0.452779  0.666478  0.481480  1
  O  O29  1  0.547221  0.333522  0.518520  1
  O  O30  1  0.438080  0.502369  0.603104  1
  O  O31  1  0.561920  0.497631  0.396896  1
  O  O32  1  0.162014  0.795333  0.576138  1
  O  O33  1  0.808040  0.985480  0.369247  1
  O  O34  1  0.747363  0.026744  0.563042  1
  O  O35  1  0.862806  0.506915  0.539774  1
  O  O36  1  0.080390  0.345767  0.664590  1
  O  O37  1  0.515982  0.169532  0.647402  1
  O  O38  1  0.157820  0.734745  0.402597  1
  O  O39  1  0.252637  0.973256  0.436958  1
  O  O40  1  0.636140  0.995933  0.469541  1
