# generated using pymatgen
data_LiCrP4O13
_symmetry_space_group_name_H-M   'P 1'
_cell_length_a   5.03695662
_cell_length_b   7.77749018
_cell_length_c   32.68697200
_cell_angle_alpha   90.00000000
_cell_angle_beta   90.00000000
_cell_angle_gamma   82.56043056
_symmetry_Int_Tables_number   1
_chemical_formula_structural   LiCrP4O13
_chemical_formula_sum   'Li2 Cr2 P8 O26'
_cell_volume   1269.72887898
_cell_formula_units_Z   2
loop_
 _symmetry_equiv_pos_site_id
 _symmetry_equiv_pos_as_xyz
  1  'x, y, z'
loop_
 _atom_site_type_symbol
 _atom_site_label
 _atom_site_symmetry_multiplicity
 _atom_site_fract_x
 _atom_site_fract_y
 _atom_site_fract_z
 _atom_site_occupancy
  Li  Li1  1  0.928336  0.823601  0.489340  1
  Li  Li2  1  0.405474  0.609019  0.679502  1
  Cr  Cr3  1  0.445288  0.307050  0.599229  1
  Cr  Cr4  1  0.571669  0.027212  0.390693  1
  P  P5  1  0.654208  0.659080  0.567336  1
  P  P6  1  0.305173  0.928249  0.616569  1
  P  P7  1  0.096181  0.847677  0.346674  1
  P  P8  1  0.039203  0.199839  0.436314  1
  P  P9  1  0.911388  0.489657  0.641076  1
  P  P10  1  0.698230  0.413709  0.377634  1
  P  P11  1  0.348391  0.682615  0.421679  1
  P  P12  1  0.969551  0.129018  0.556069  1
  O  O13  1  0.154342  0.707977  0.382734  1
  O  O14  1  0.461735  0.524390  0.571574  1
  O  O15  1  0.970865  0.353248  0.403097  1
  O  O16  1  0.267965  0.993345  0.354267  1
  O  O17  1  0.797256  0.915609  0.348999  1
  O  O18  1  0.506431  0.494160  0.414616  1
  O  O19  1  0.880475  0.050277  0.425659  1
  O  O20  1  0.734920  0.539023  0.345343  1
  O  O21  1  0.030883  0.981861  0.591468  1
  O  O22  1  0.134091  0.275434  0.567060  1
  O  O23  1  0.216869  0.432536  0.643234  1
  O  O24  1  0.668690  0.187125  0.557584  1
  O  O25  1  0.794968  0.576655  0.678956  1
  O  O26  1  0.967607  0.285548  0.477931  1
  O  O27  1  0.196868  0.686033  0.460132  1
  O  O28  1  0.775693  0.685727  0.527289  1
  O  O29  1  0.265057  0.809096  0.650436  1
  O  O30  1  0.167543  0.764325  0.305220  1
  O  O31  1  0.413808  0.096009  0.628299  1
  O  O32  1  0.761491  0.333912  0.629049  1
  O  O33  1  0.495353  0.842593  0.581057  1
  O  O34  1  0.555711  0.811631  0.417833  1
  O  O35  1  0.049006  0.034347  0.515773  1
  O  O36  1  0.582647  0.246265  0.365957  1
  O  O37  1  0.340458  0.140499  0.432015  1
  O  O38  1  0.877006  0.620775  0.602304  1
