# generated using pymatgen
data_CuN6
_symmetry_space_group_name_H-M   'P 1'
_cell_length_a   3.09577808
_cell_length_b   9.10661702
_cell_length_c   28.92802692
_cell_angle_alpha   90.00000000
_cell_angle_beta   90.00000000
_cell_angle_gamma   90.00000000
_symmetry_Int_Tables_number   1
_chemical_formula_structural   CuN6
_chemical_formula_sum   'Cu2 N12'
_cell_volume   815.54082548
_cell_formula_units_Z   2
loop_
 _symmetry_equiv_pos_site_id
 _symmetry_equiv_pos_as_xyz
  1  'x, y, z'
loop_
 _atom_site_type_symbol
 _atom_site_label
 _atom_site_symmetry_multiplicity
 _atom_site_fract_x
 _atom_site_fract_y
 _atom_site_fract_z
 _atom_site_occupancy
  Cu  Cu1  1  0.500000  0.083491  0.430853  1
  Cu  Cu2  1  0.000000  0.583491  0.569147  1
  N  N3  1  0.000000  0.259501  0.368350  1
  N  N4  1  0.500000  0.330126  0.470136  1
  N  N5  1  -0.000000  0.995065  0.466306  1
  N  N6  1  0.500000  0.759501  0.631650  1
  N  N7  1  0.000000  0.151103  0.393481  1
  N  N8  1  0.000000  0.910168  0.498695  1
  N  N9  1  0.500000  0.860786  0.655567  1
  N  N10  1  0.000000  0.830126  0.529864  1
  N  N11  1  0.500000  0.410168  0.501305  1
  N  N12  1  -0.000000  0.360786  0.344433  1
  N  N13  1  0.500000  0.495065  0.533694  1
  N  N14  1  0.500000  0.651103  0.606519  1
