# generated using pymatgen
data_TePdI2
_symmetry_space_group_name_H-M   'P 1'
_cell_length_a   4.08942451
_cell_length_b   7.02911971
_cell_length_c   27.64694385
_cell_angle_alpha   91.99697842
_cell_angle_beta   87.07683268
_cell_angle_gamma   88.46653090
_symmetry_Int_Tables_number   1
_chemical_formula_structural   TePdI2
_chemical_formula_sum   'Te2 Pd2 I4'
_cell_volume   792.87251312
_cell_formula_units_Z   2
loop_
 _symmetry_equiv_pos_site_id
 _symmetry_equiv_pos_as_xyz
  1  'x, y, z'
loop_
 _atom_site_type_symbol
 _atom_site_label
 _atom_site_symmetry_multiplicity
 _atom_site_fract_x
 _atom_site_fract_y
 _atom_site_fract_z
 _atom_site_occupancy
  Te  Te1  1  0.749923  0.419840  0.547443  1
  Te  Te2  1  0.250077  0.580160  0.452557  1
  Pd  Pd3  1  0.746108  0.750742  0.505334  1
  Pd  Pd4  1  0.253892  0.249258  0.494666  1
  I  I5  1  0.748926  0.045568  0.439873  1
  I  I6  1  0.852746  0.492701  0.366364  1
  I  I7  1  0.251074  0.954432  0.560127  1
  I  I8  1  0.147255  0.507299  0.633636  1
