# generated using pymatgen
data_CrPO5
_symmetry_space_group_name_H-M   'P 1'
_cell_length_a   5.82083335
_cell_length_b   5.82083335
_cell_length_c   26.05600777
_cell_angle_alpha   90.00000000
_cell_angle_beta   90.00000000
_cell_angle_gamma   90.00000000
_symmetry_Int_Tables_number   1
_chemical_formula_structural   CrPO5
_chemical_formula_sum   'Cr2 P2 O10'
_cell_volume   882.83228401
_cell_formula_units_Z   2
loop_
 _symmetry_equiv_pos_site_id
 _symmetry_equiv_pos_as_xyz
  1  'x, y, z'
loop_
 _atom_site_type_symbol
 _atom_site_label
 _atom_site_symmetry_multiplicity
 _atom_site_fract_x
 _atom_site_fract_y
 _atom_site_fract_z
 _atom_site_occupancy
  Cr  Cr1  1  -0.000000  0.500000  0.445963  1
  Cr  Cr2  1  0.500000  -0.000000  0.554037  1
  P  P3  1  0.500000  0.500000  0.500000  1
  P  P4  1  -0.000000  -0.000000  0.500000  1
  O  O5  1  0.418464  0.698248  0.534878  1
  O  O6  1  0.698248  0.581536  0.465122  1
  O  O7  1  -0.000000  0.500000  0.385387  1
  O  O8  1  0.301752  0.418464  0.465122  1
  O  O9  1  0.581536  0.301752  0.534878  1
  O  O10  1  0.918464  0.198248  0.465122  1
  O  O11  1  0.198248  0.081536  0.534878  1
  O  O12  1  0.500000  0.000000  0.614613  1
  O  O13  1  0.801752  0.918464  0.534878  1
  O  O14  1  0.081536  0.801752  0.465122  1
