# generated using pymatgen
data_PbSeO3
_symmetry_space_group_name_H-M   'P 1'
_cell_length_a   8.07528192
_cell_length_b   8.83121779
_cell_length_c   27.17721400
_cell_angle_alpha   90.00000000
_cell_angle_beta   90.00000000
_cell_angle_gamma   90.00000000
_symmetry_Int_Tables_number   1
_chemical_formula_structural   PbSeO3
_chemical_formula_sum   'Pb8 Se8 O24'
_cell_volume   1938.13142128
_cell_formula_units_Z   8
loop_
 _symmetry_equiv_pos_site_id
 _symmetry_equiv_pos_as_xyz
  1  'x, y, z'
loop_
 _atom_site_type_symbol
 _atom_site_label
 _atom_site_symmetry_multiplicity
 _atom_site_fract_x
 _atom_site_fract_y
 _atom_site_fract_z
 _atom_site_occupancy
  Pb  Pb1  1  0.825200  0.794896  0.622854  1
  Pb  Pb2  1  0.839534  0.137035  0.494245  1
  Pb  Pb3  1  0.339534  0.301568  0.505755  1
  Pb  Pb4  1  0.160466  0.801568  0.505755  1
  Pb  Pb5  1  0.325200  0.643707  0.377146  1
  Pb  Pb6  1  0.674800  0.294896  0.622854  1
  Pb  Pb7  1  0.660466  0.637035  0.494245  1
  Pb  Pb8  1  0.174800  0.143707  0.377146  1
  Se  Se9  1  0.893463  0.857925  0.392575  1
  Se  Se10  1  0.507511  0.963970  0.568332  1
  Se  Se11  1  0.992489  0.463970  0.568332  1
  Se  Se12  1  0.007511  0.474633  0.431668  1
  Se  Se13  1  0.106537  0.080677  0.607425  1
  Se  Se14  1  0.606537  0.357925  0.392575  1
  Se  Se15  1  0.492489  0.974633  0.431668  1
  Se  Se16  1  0.393463  0.580677  0.607425  1
  O  O17  1  0.373678  0.387650  0.601414  1
  O  O18  1  0.185848  0.568644  0.453799  1
  O  O19  1  0.550250  0.967306  0.628954  1
  O  O20  1  0.893402  0.087730  0.613657  1
  O  O21  1  0.949750  0.467306  0.628954  1
  O  O22  1  0.940703  0.649317  0.549737  1
  O  O23  1  0.106598  0.850872  0.386343  1
  O  O24  1  0.370903  0.637100  0.545983  1
  O  O25  1  0.050250  0.471296  0.371046  1
  O  O26  1  0.870903  0.801502  0.454017  1
  O  O27  1  0.393402  0.350872  0.386343  1
  O  O28  1  0.059297  0.289285  0.450263  1
  O  O29  1  0.126322  0.887650  0.601414  1
  O  O30  1  0.626322  0.550952  0.398586  1
  O  O31  1  0.440703  0.789285  0.450263  1
  O  O32  1  0.606598  0.587730  0.613657  1
  O  O33  1  0.559297  0.149317  0.549737  1
  O  O34  1  0.129097  0.137100  0.545983  1
  O  O35  1  0.685848  0.869958  0.546201  1
  O  O36  1  0.814152  0.369958  0.546201  1
  O  O37  1  0.314152  0.068644  0.453799  1
  O  O38  1  0.449750  0.971296  0.371046  1
  O  O39  1  0.873678  0.050952  0.398586  1
  O  O40  1  0.629097  0.301502  0.454017  1
