# generated using pymatgen
data_LiFe2O2F3
_symmetry_space_group_name_H-M   'P 1'
_cell_length_a   3.81696083
_cell_length_b   5.35565885
_cell_length_c   29.79051800
_cell_angle_alpha   90.00000000
_cell_angle_beta   90.00000000
_cell_angle_gamma   110.87611248
_symmetry_Int_Tables_number   1
_chemical_formula_structural   LiFe2O2F3
_chemical_formula_sum   'Li2 Fe4 O4 F6'
_cell_volume   569.00974523
_cell_formula_units_Z   2
loop_
 _symmetry_equiv_pos_site_id
 _symmetry_equiv_pos_as_xyz
  1  'x, y, z'
loop_
 _atom_site_type_symbol
 _atom_site_label
 _atom_site_symmetry_multiplicity
 _atom_site_fract_x
 _atom_site_fract_y
 _atom_site_fract_z
 _atom_site_occupancy
  Li  Li1  1  0.308992  0.617983  0.655042  1
  Li  Li2  1  0.629300  0.258600  0.598472  1
  Fe  Fe3  1  0.348641  0.697282  0.560049  1
  Fe  Fe4  1  0.371640  0.743281  0.437237  1
  Fe  Fe5  1  0.697187  0.394374  0.495542  1
  Fe  Fe6  1  0.643169  0.286339  0.391704  1
  O  O7  1  0.261035  0.522069  0.500798  1
  O  O8  1  0.552081  0.104160  0.455300  1
  O  O9  1  0.813434  0.626867  0.439158  1
  O  O10  1  0.806547  0.613095  0.561985  1
  F  F11  1  0.451738  0.903477  0.376832  1
  F  F12  1  0.182921  0.365843  0.615243  1
  F  F13  1  0.459059  0.918119  0.628252  1
  F  F14  1  0.176514  0.353028  0.402464  1
  F  F15  1  0.721763  0.443525  0.337854  1
  F  F16  1  0.537805  0.075610  0.544067  1
