# generated using pymatgen
data_In2O3
_symmetry_space_group_name_H-M   'P 1'
_cell_length_a   6.17433014
_cell_length_b   6.17432970
_cell_length_c   21.75501800
_cell_angle_alpha   90.00000000
_cell_angle_beta   90.00000000
_cell_angle_gamma   60.00000445
_symmetry_Int_Tables_number   1
_chemical_formula_structural   In2O3
_chemical_formula_sum   'In2 O3'
_cell_volume   718.24028811
_cell_formula_units_Z   1
loop_
 _symmetry_equiv_pos_site_id
 _symmetry_equiv_pos_as_xyz
  1  'x, y, z'
loop_
 _atom_site_type_symbol
 _atom_site_label
 _atom_site_symmetry_multiplicity
 _atom_site_fract_x
 _atom_site_fract_y
 _atom_site_fract_z
 _atom_site_occupancy
  In  In1  1  0.333333  0.333333  0.502036  1
  In  In2  1  0.666667  0.666667  0.497964  1
  O  O3  1  0.000000  0.647929  0.500000  1
  O  O4  1  0.647929  0.352071  0.500000  1
  O  O5  1  0.352071  1.000000  0.500000  1
