# generated using pymatgen
data_ThBrN
_symmetry_space_group_name_H-M   'P 1'
_cell_length_a   4.05303357
_cell_length_b   4.05303357
_cell_length_c   25.80456500
_cell_angle_alpha   90.00000000
_cell_angle_beta   90.00000000
_cell_angle_gamma   90.00000000
_symmetry_Int_Tables_number   1
_chemical_formula_structural   ThBrN
_chemical_formula_sum   'Th2 Br2 N2'
_cell_volume   423.89368251
_cell_formula_units_Z   2
loop_
 _symmetry_equiv_pos_site_id
 _symmetry_equiv_pos_as_xyz
  1  'x, y, z'
loop_
 _atom_site_type_symbol
 _atom_site_label
 _atom_site_symmetry_multiplicity
 _atom_site_fract_x
 _atom_site_fract_y
 _atom_site_fract_z
 _atom_site_occupancy
  Th  Th1  1  0.500000  -0.000000  0.545616  1
  Th  Th2  1  -0.000000  0.500000  0.454384  1
  Br  Br3  1  -0.000000  0.500000  0.612696  1
  Br  Br4  1  0.500000  -0.000000  0.387304  1
  N  N5  1  0.000000  0.000000  0.500000  1
  N  N6  1  0.500000  0.500000  0.500000  1
