# generated using pymatgen
data_Ba2Mn3O8
_symmetry_space_group_name_H-M   'P 1'
_cell_length_a   3.86913772
_cell_length_b   3.86983708
_cell_length_c   28.21725378
_cell_angle_alpha   90.00000000
_cell_angle_beta   90.00000000
_cell_angle_gamma   90.03438195
_symmetry_Int_Tables_number   1
_chemical_formula_structural   Ba2Mn3O8
_chemical_formula_sum   'Ba2 Mn3 O8'
_cell_volume   422.49496362
_cell_formula_units_Z   1
loop_
 _symmetry_equiv_pos_site_id
 _symmetry_equiv_pos_as_xyz
  1  'x, y, z'
loop_
 _atom_site_type_symbol
 _atom_site_label
 _atom_site_symmetry_multiplicity
 _atom_site_fract_x
 _atom_site_fract_y
 _atom_site_fract_z
 _atom_site_occupancy
  Ba  Ba1  1  -0.000000  0.000000  0.574245  1
  Ba  Ba2  1  0.000000  0.000000  0.425951  1
  Mn  Mn3  1  0.500000  0.500000  0.644907  1
  Mn  Mn4  1  0.500000  0.500000  0.499948  1
  Mn  Mn5  1  0.500000  0.500000  0.355353  1
  O  O6  1  0.000000  0.500000  0.651497  1
  O  O7  1  0.500000  0.000000  0.651483  1
  O  O8  1  0.500000  0.000000  0.500086  1
  O  O9  1  0.500000  0.500000  0.577429  1
  O  O10  1  0.000000  0.500000  0.348305  1
  O  O11  1  0.500000  -0.000000  0.348259  1
  O  O12  1  0.500000  0.500000  0.422445  1
  O  O13  1  0.000000  0.500000  0.500094  1
