# generated using pymatgen
data_RbHfMg6O7
_symmetry_space_group_name_H-M   'P 1'
_cell_length_a   4.22548351
_cell_length_b   4.22548351
_cell_length_c   28.80184500
_cell_angle_alpha   90.00000000
_cell_angle_beta   90.00000000
_cell_angle_gamma   90.00000000
_symmetry_Int_Tables_number   1
_chemical_formula_structural   RbHfMg6O7
_chemical_formula_sum   'Rb1 Hf1 Mg6 O7'
_cell_volume   514.24861567
_cell_formula_units_Z   1
loop_
 _symmetry_equiv_pos_site_id
 _symmetry_equiv_pos_as_xyz
  1  'x, y, z'
loop_
 _atom_site_type_symbol
 _atom_site_label
 _atom_site_symmetry_multiplicity
 _atom_site_fract_x
 _atom_site_fract_y
 _atom_site_fract_z
 _atom_site_occupancy
  Rb  Rb1  1  0.000000  -0.000000  0.336359  1
  Hf  Hf2  1  0.000000  0.000000  0.549977  1
  Mg  Mg3  1  0.500000  0.500000  0.392816  1
  Mg  Mg4  1  0.500000  0.500000  0.550300  1
  Mg  Mg5  1  0.500000  -0.000000  0.635916  1
  Mg  Mg6  1  0.500000  -0.000000  0.460134  1
  Mg  Mg7  1  0.000000  0.500000  0.635916  1
  Mg  Mg8  1  0.000000  0.500000  0.460134  1
  O  O9  1  -0.000000  -0.000000  0.480855  1
  O  O10  1  0.500000  0.500000  0.625675  1
  O  O11  1  0.500000  0.500000  0.476426  1
  O  O12  1  0.500000  -0.000000  0.393599  1
  O  O13  1  0.500000  -0.000000  0.554147  1
  O  O14  1  -0.000000  0.500000  0.393599  1
  O  O15  1  -0.000000  0.500000  0.554147  1
