# generated using pymatgen
data_CaCr2F12
_symmetry_space_group_name_H-M   'P 1'
_cell_length_a   5.25135156
_cell_length_b   5.53885635
_cell_length_c   27.01480263
_cell_angle_alpha   90.16736220
_cell_angle_beta   89.58814636
_cell_angle_gamma   118.03628913
_symmetry_Int_Tables_number   1
_chemical_formula_structural   CaCr2F12
_chemical_formula_sum   'Ca1 Cr2 F12'
_cell_volume   693.53802187
_cell_formula_units_Z   1
loop_
 _symmetry_equiv_pos_site_id
 _symmetry_equiv_pos_as_xyz
  1  'x, y, z'
loop_
 _atom_site_type_symbol
 _atom_site_label
 _atom_site_symmetry_multiplicity
 _atom_site_fract_x
 _atom_site_fract_y
 _atom_site_fract_z
 _atom_site_occupancy
  Ca  Ca1  1  0.500000  0.500000  0.500000  1
  Cr  Cr2  1  0.828960  0.147297  0.413288  1
  Cr  Cr3  1  0.171040  0.852703  0.586712  1
  F  F4  1  0.938890  0.009721  0.364961  1
  F  F5  1  0.269753  0.730115  0.528699  1
  F  F6  1  0.460633  0.958204  0.397618  1
  F  F7  1  0.789791  0.653683  0.566409  1
  F  F8  1  0.858004  0.439948  0.383985  1
  F  F9  1  0.199064  0.133700  0.546167  1
  F  F10  1  0.539367  0.041796  0.602382  1
  F  F11  1  0.210209  0.346317  0.433591  1
  F  F12  1  0.061110  0.990279  0.635039  1
  F  F13  1  0.730247  0.269885  0.471301  1
  F  F14  1  0.141996  0.560052  0.616015  1
  F  F15  1  0.800936  0.866300  0.453833  1
