# generated using pymatgen
data_Sn4Ir
_symmetry_space_group_name_H-M   'P 1'
_cell_length_a   6.45003908
_cell_length_b   6.60529201
_cell_length_c   22.88029500
_cell_angle_alpha   90.00000000
_cell_angle_beta   90.00000000
_cell_angle_gamma   90.00000000
_symmetry_Int_Tables_number   1
_chemical_formula_structural   Sn4Ir
_chemical_formula_sum   'Sn8 Ir2'
_cell_volume   974.80104809
_cell_formula_units_Z   2
loop_
 _symmetry_equiv_pos_site_id
 _symmetry_equiv_pos_as_xyz
  1  'x, y, z'
loop_
 _atom_site_type_symbol
 _atom_site_label
 _atom_site_symmetry_multiplicity
 _atom_site_fract_x
 _atom_site_fract_y
 _atom_site_fract_z
 _atom_site_occupancy
  Sn  Sn1  1  0.836302  0.834201  0.560686  1
  Sn  Sn2  1  0.163698  0.165799  0.560686  1
  Sn  Sn3  1  0.663698  0.334201  0.560686  1
  Sn  Sn4  1  0.336302  0.665799  0.560686  1
  Sn  Sn5  1  0.663698  0.665799  0.439314  1
  Sn  Sn6  1  0.336302  0.334201  0.439314  1
  Sn  Sn7  1  0.836302  0.165799  0.439314  1
  Sn  Sn8  1  0.163698  0.834201  0.439314  1
  Ir  Ir9  1  -0.000000  0.500000  0.500000  1
  Ir  Ir10  1  0.500000  -0.000000  0.500000  1
