# generated using pymatgen
data_VPO5
_symmetry_space_group_name_H-M   'P 1'
_cell_length_a   6.00972934
_cell_length_b   6.00972934
_cell_length_c   25.78807100
_cell_angle_alpha   90.00000000
_cell_angle_beta   90.00000000
_cell_angle_gamma   90.00000000
_symmetry_Int_Tables_number   1
_chemical_formula_structural   VPO5
_chemical_formula_sum   'V2 P2 O10'
_cell_volume   931.38380803
_cell_formula_units_Z   2
loop_
 _symmetry_equiv_pos_site_id
 _symmetry_equiv_pos_as_xyz
  1  'x, y, z'
loop_
 _atom_site_type_symbol
 _atom_site_label
 _atom_site_symmetry_multiplicity
 _atom_site_fract_x
 _atom_site_fract_y
 _atom_site_fract_z
 _atom_site_occupancy
  V  V1  1  0.500000  0.000000  0.552597  1
  V  V2  1  -0.000000  0.500000  0.447403  1
  P  P3  1  -0.000000  0.000000  0.500000  1
  P  P4  1  0.500000  0.500000  0.500000  1
  O  O5  1  0.060280  0.198938  0.465106  1
  O  O6  1  0.801062  0.060280  0.534894  1
  O  O7  1  0.500000  0.000000  0.614503  1
  O  O8  1  0.198938  0.939720  0.534894  1
  O  O9  1  0.939720  0.801062  0.465106  1
  O  O10  1  0.560280  0.698938  0.534894  1
  O  O11  1  0.301062  0.560280  0.465106  1
  O  O12  1  -0.000000  0.500000  0.385497  1
  O  O13  1  0.698938  0.439720  0.465106  1
  O  O14  1  0.439720  0.301062  0.534894  1
