# generated using pymatgen
data_AgO2F
_symmetry_space_group_name_H-M   'P 1'
_cell_length_a   3.89711879
_cell_length_b   4.59096653
_cell_length_c   25.45970722
_cell_angle_alpha   89.61151789
_cell_angle_beta   90.00000000
_cell_angle_gamma   90.00000000
_symmetry_Int_Tables_number   1
_chemical_formula_structural   AgO2F
_chemical_formula_sum   'Ag2 O4 F2'
_cell_volume   455.50294845
_cell_formula_units_Z   2
loop_
 _symmetry_equiv_pos_site_id
 _symmetry_equiv_pos_as_xyz
  1  'x, y, z'
loop_
 _atom_site_type_symbol
 _atom_site_label
 _atom_site_symmetry_multiplicity
 _atom_site_fract_x
 _atom_site_fract_y
 _atom_site_fract_z
 _atom_site_occupancy
  Ag  Ag1  1  0.750000  0.744786  0.541023  1
  Ag  Ag2  1  0.250000  0.255214  0.458977  1
  O  O3  1  0.586906  0.334293  0.389489  1
  O  O4  1  0.913095  0.334293  0.389489  1
  O  O5  1  0.086906  0.665707  0.610511  1
  O  O6  1  0.413095  0.665707  0.610511  1
  F  F7  1  0.750000  0.238298  0.504546  1
  F  F8  1  0.250000  0.761702  0.495454  1
