# generated using pymatgen
data_SbPb2S2I3
_symmetry_space_group_name_H-M   'P 1'
_cell_length_a   8.68269451
_cell_length_b   16.51399787
_cell_length_c   25.94745700
_cell_angle_alpha   90.00000000
_cell_angle_beta   90.00000000
_cell_angle_gamma   90.00000000
_symmetry_Int_Tables_number   1
_chemical_formula_structural   SbPb2S2I3
_chemical_formula_sum   'Sb4 Pb8 S8 I12'
_cell_volume   3720.50203422
_cell_formula_units_Z   4
loop_
 _symmetry_equiv_pos_site_id
 _symmetry_equiv_pos_as_xyz
  1  'x, y, z'
loop_
 _atom_site_type_symbol
 _atom_site_label
 _atom_site_symmetry_multiplicity
 _atom_site_fract_x
 _atom_site_fract_y
 _atom_site_fract_z
 _atom_site_occupancy
  Sb  Sb1  1  0.126536  0.984569  0.558934  1
  Sb  Sb2  1  0.373464  0.484569  0.441066  1
  Sb  Sb3  1  0.626536  0.515431  0.558934  1
  Sb  Sb4  1  0.873464  0.015431  0.441066  1
  Pb  Pb5  1  0.868842  0.480542  0.428089  1
  Pb  Pb6  1  0.860322  0.735841  0.468666  1
  Pb  Pb7  1  0.131158  0.519458  0.571911  1
  Pb  Pb8  1  0.368842  0.019458  0.428089  1
  Pb  Pb9  1  0.639678  0.235841  0.531334  1
  Pb  Pb10  1  0.139678  0.264159  0.531334  1
  Pb  Pb11  1  0.631158  0.980542  0.571911  1
  Pb  Pb12  1  0.360322  0.764159  0.468666  1
  S  S13  1  0.140529  0.423929  0.486182  1
  S  S14  1  0.896377  0.914098  0.511429  1
  S  S15  1  0.359471  0.923929  0.513818  1
  S  S16  1  0.103623  0.085902  0.488571  1
  S  S17  1  0.603623  0.414098  0.488571  1
  S  S18  1  0.859471  0.576071  0.513818  1
  S  S19  1  0.396377  0.585902  0.511429  1
  S  S20  1  0.640529  0.076071  0.486182  1
  I  I21  1  0.626109  0.877822  0.398746  1
  I  I22  1  0.368701  0.373685  0.609905  1
  I  I23  1  0.868701  0.126315  0.609905  1
  I  I24  1  0.120069  0.743753  0.560543  1
  I  I25  1  0.373891  0.122178  0.601254  1
  I  I26  1  0.631299  0.626315  0.390095  1
  I  I27  1  0.379931  0.243753  0.439457  1
  I  I28  1  0.131299  0.873685  0.390095  1
  I  I29  1  0.126109  0.622178  0.398746  1
  I  I30  1  0.873891  0.377822  0.601254  1
  I  I31  1  0.620069  0.756247  0.560543  1
  I  I32  1  0.879931  0.256247  0.439457  1
