# generated using pymatgen
data_LiBiO2
_symmetry_space_group_name_H-M   'P 1'
_cell_length_a   4.72963091
_cell_length_b   5.27709262
_cell_length_c   26.28291700
_cell_angle_alpha   90.00000000
_cell_angle_beta   90.00000000
_cell_angle_gamma   90.00000000
_symmetry_Int_Tables_number   1
_chemical_formula_structural   LiBiO2
_chemical_formula_sum   'Li4 Bi4 O8'
_cell_volume   655.98745027
_cell_formula_units_Z   4
loop_
 _symmetry_equiv_pos_site_id
 _symmetry_equiv_pos_as_xyz
  1  'x, y, z'
loop_
 _atom_site_type_symbol
 _atom_site_label
 _atom_site_symmetry_multiplicity
 _atom_site_fract_x
 _atom_site_fract_y
 _atom_site_fract_z
 _atom_site_occupancy
  Li  Li1  1  0.499845  0.749994  0.500609  1
  Li  Li2  1  0.999843  0.249994  0.499391  1
  Li  Li3  1  0.499843  0.250007  0.499391  1
  Li  Li4  1  0.999845  0.750007  0.500609  1
  Bi  Bi5  1  0.749864  0.507078  0.613538  1
  Bi  Bi6  1  0.249823  0.492922  0.386462  1
  Bi  Bi7  1  0.749823  0.007078  0.386462  1
  Bi  Bi8  1  0.249864  0.992922  0.613538  1
  O  O9  1  0.749842  0.494790  0.534542  1
  O  O10  1  0.249846  0.505210  0.465458  1
  O  O11  1  0.749846  0.994790  0.465458  1
  O  O12  1  0.249842  0.005210  0.534542  1
  O  O13  1  0.750002  0.914959  0.617502  1
  O  O14  1  0.249685  0.085041  0.382498  1
  O  O15  1  0.749685  0.414959  0.382498  1
  O  O16  1  0.250002  0.585041  0.617502  1
