# generated using pymatgen
data_Na2ZrN2
_symmetry_space_group_name_H-M   'P 1'
_cell_length_a   3.37489910
_cell_length_b   3.37489913
_cell_length_c   25.21167700
_cell_angle_alpha   90.00000000
_cell_angle_beta   90.00000000
_cell_angle_gamma   119.99999971
_symmetry_Int_Tables_number   1
_chemical_formula_structural   Na2ZrN2
_chemical_formula_sum   'Na2 Zr1 N2'
_cell_volume   248.68750066
_cell_formula_units_Z   1
loop_
 _symmetry_equiv_pos_site_id
 _symmetry_equiv_pos_as_xyz
  1  'x, y, z'
loop_
 _atom_site_type_symbol
 _atom_site_label
 _atom_site_symmetry_multiplicity
 _atom_site_fract_x
 _atom_site_fract_y
 _atom_site_fract_z
 _atom_site_occupancy
  Na  Na1  1  0.666667  0.333333  0.398833  1
  Na  Na2  1  0.333333  0.666667  0.601167  1
  Zr  Zr3  1  -0.000000  -0.000000  0.500000  1
  N  N4  1  0.666667  0.333333  0.546647  1
  N  N5  1  0.333333  0.666667  0.453353  1
