# generated using pymatgen
data_V2ZnO5
_symmetry_space_group_name_H-M   'P 1'
_cell_length_a   3.80783676
_cell_length_b   11.48341988
_cell_length_c   24.24688600
_cell_angle_alpha   90.00000000
_cell_angle_beta   90.00000000
_cell_angle_gamma   90.00000000
_symmetry_Int_Tables_number   1
_chemical_formula_structural   V2ZnO5
_chemical_formula_sum   'V4 Zn2 O10'
_cell_volume   1060.24330164
_cell_formula_units_Z   2
loop_
 _symmetry_equiv_pos_site_id
 _symmetry_equiv_pos_as_xyz
  1  'x, y, z'
loop_
 _atom_site_type_symbol
 _atom_site_label
 _atom_site_symmetry_multiplicity
 _atom_site_fract_x
 _atom_site_fract_y
 _atom_site_fract_z
 _atom_site_occupancy
  V  V1  1  0.250000  0.584377  0.529975  1
  V  V2  1  0.750000  0.415319  0.470025  1
  V  V3  1  0.750000  0.084410  0.470019  1
  V  V4  1  0.250000  0.915286  0.529981  1
  Zn  Zn5  1  0.750000  0.749835  0.475260  1
  Zn  Zn6  1  0.250000  0.249861  0.524740  1
  O  O7  1  0.750000  0.249821  0.503405  1
  O  O8  1  0.250000  0.749876  0.496595  1
  O  O9  1  0.750000  0.579015  0.499159  1
  O  O10  1  0.250000  0.420681  0.500841  1
  O  O11  1  0.750000  0.920687  0.499163  1
  O  O12  1  0.250000  0.079009  0.500837  1
  O  O13  1  0.250000  0.915087  0.596564  1
  O  O14  1  0.750000  0.084609  0.403436  1
  O  O15  1  0.750000  0.415055  0.403428  1
  O  O16  1  0.250000  0.584641  0.596572  1
