# generated using pymatgen
data_Zn2In2S5
_symmetry_space_group_name_H-M   'P 1'
_cell_length_a   3.90021877
_cell_length_b   3.90021889
_cell_length_c   32.61394600
_cell_angle_alpha   90.00000000
_cell_angle_beta   90.00000000
_cell_angle_gamma   119.99999887
_symmetry_Int_Tables_number   1
_chemical_formula_structural   Zn2In2S5
_chemical_formula_sum   'Zn2 In2 S5'
_cell_volume   429.64714889
_cell_formula_units_Z   1
loop_
 _symmetry_equiv_pos_site_id
 _symmetry_equiv_pos_as_xyz
  1  'x, y, z'
loop_
 _atom_site_type_symbol
 _atom_site_label
 _atom_site_symmetry_multiplicity
 _atom_site_fract_x
 _atom_site_fract_y
 _atom_site_fract_z
 _atom_site_occupancy
  Zn  Zn1  1  0.333333  0.666667  0.438760  1
  Zn  Zn2  1  0.666667  0.333333  0.671655  1
  In  In3  1  0.000000  -0.000000  0.553871  1
  In  In4  1  0.666667  0.333333  0.335168  1
  S  S5  1  0.666667  0.333333  0.411284  1
  S  S6  1  0.333333  0.666667  0.688508  1
  S  S7  1  0.333333  0.666667  0.301043  1
  S  S8  1  0.333333  0.666667  0.506797  1
  S  S9  1  0.666667  0.333333  0.592914  1
