# generated using pymatgen
data_ScBrO
_symmetry_space_group_name_H-M   'P 1'
_cell_length_a   3.55769733
_cell_length_b   3.96126045
_cell_length_c   25.84937300
_cell_angle_alpha   90.00000000
_cell_angle_beta   90.00000000
_cell_angle_gamma   90.00000000
_symmetry_Int_Tables_number   1
_chemical_formula_structural   ScBrO
_chemical_formula_sum   'Sc2 Br2 O2'
_cell_volume   364.29432774
_cell_formula_units_Z   2
loop_
 _symmetry_equiv_pos_site_id
 _symmetry_equiv_pos_as_xyz
  1  'x, y, z'
loop_
 _atom_site_type_symbol
 _atom_site_label
 _atom_site_symmetry_multiplicity
 _atom_site_fract_x
 _atom_site_fract_y
 _atom_site_fract_z
 _atom_site_occupancy
  Sc  Sc1  1  0.000000  0.500000  0.536208  1
  Sc  Sc2  1  0.500000  -0.000000  0.463792  1
  Br  Br3  1  0.500000  0.500000  0.612751  1
  Br  Br4  1  0.000000  -0.000000  0.387249  1
  O  O5  1  0.500000  0.500000  0.489284  1
  O  O6  1  0.000000  -0.000000  0.510716  1
