# generated using pymatgen
data_TlAsO4
_symmetry_space_group_name_H-M   'P 1'
_cell_length_a   4.66472978
_cell_length_b   4.66472978
_cell_length_c   22.22090087
_cell_angle_alpha   90.00000000
_cell_angle_beta   90.00000000
_cell_angle_gamma   90.00000000
_symmetry_Int_Tables_number   1
_chemical_formula_structural   TlAsO4
_chemical_formula_sum   'Tl1 As1 O4'
_cell_volume   483.52022378
_cell_formula_units_Z   1
loop_
 _symmetry_equiv_pos_site_id
 _symmetry_equiv_pos_as_xyz
  1  'x, y, z'
loop_
 _atom_site_type_symbol
 _atom_site_label
 _atom_site_symmetry_multiplicity
 _atom_site_fract_x
 _atom_site_fract_y
 _atom_site_fract_z
 _atom_site_occupancy
  Tl  Tl1  1  0.000000  -0.000000  0.500000  1
  As  As2  1  0.500000  0.500000  0.500000  1
  O  O3  1  0.290249  0.708879  0.546886  1
  O  O4  1  0.291122  0.290249  0.453114  1
  O  O5  1  0.708879  0.709752  0.453114  1
  O  O6  1  0.709752  0.291122  0.546886  1
