# generated using pymatgen
data_NbTe2
_symmetry_space_group_name_H-M   'P 1'
_cell_length_a   3.62791781
_cell_length_b   9.91325407
_cell_length_c   24.07610000
_cell_angle_alpha   90.00000000
_cell_angle_beta   90.00000000
_cell_angle_gamma   79.45642902
_symmetry_Int_Tables_number   1
_chemical_formula_structural   NbTe2
_chemical_formula_sum   'Nb3 Te6'
_cell_volume   851.26464639
_cell_formula_units_Z   3
loop_
 _symmetry_equiv_pos_site_id
 _symmetry_equiv_pos_as_xyz
  1  'x, y, z'
loop_
 _atom_site_type_symbol
 _atom_site_label
 _atom_site_symmetry_multiplicity
 _atom_site_fract_x
 _atom_site_fract_y
 _atom_site_fract_z
 _atom_site_occupancy
  Nb  Nb1  1  0.000000  -0.000000  0.500000  1
  Nb  Nb2  1  0.358992  0.282015  0.496573  1
  Nb  Nb3  1  0.641008  0.717985  0.503427  1
  Te  Te4  1  0.447661  0.104678  0.582502  1
  Te  Te5  1  0.552339  0.895322  0.417498  1
  Te  Te6  1  0.775749  0.448504  0.558841  1
  Te  Te7  1  0.224251  0.551496  0.441159  1
  Te  Te8  1  0.106072  0.787857  0.585784  1
  Te  Te9  1  0.893928  0.212143  0.414216  1
