# generated using pymatgen
data_Mn(NbS2)2
_symmetry_space_group_name_H-M   'P 1'
_cell_length_a   3.30413330
_cell_length_b   3.30413214
_cell_length_c   30.63701181
_cell_angle_alpha   90.00000000
_cell_angle_beta   90.00000000
_cell_angle_gamma   120.00000155
_symmetry_Int_Tables_number   1
_chemical_formula_structural   Mn(NbS2)2
_chemical_formula_sum   'Mn1 Nb2 S4'
_cell_volume   289.66231474
_cell_formula_units_Z   1
loop_
 _symmetry_equiv_pos_site_id
 _symmetry_equiv_pos_as_xyz
  1  'x, y, z'
loop_
 _atom_site_type_symbol
 _atom_site_label
 _atom_site_symmetry_multiplicity
 _atom_site_fract_x
 _atom_site_fract_y
 _atom_site_fract_z
 _atom_site_occupancy
  Mn  Mn1  1  0.000000  0.000000  0.500000  1
  Nb  Nb2  1  0.666667  0.333333  0.623931  1
  Nb  Nb3  1  0.333333  0.666667  0.376069  1
  S  S4  1  0.666667  0.333333  0.544321  1
  S  S5  1  0.333333  0.666667  0.455679  1
  S  S6  1  0.666667  0.333333  0.326428  1
  S  S7  1  0.333333  0.666667  0.673572  1
