# generated using pymatgen
data_Li2Te2O5
_symmetry_space_group_name_H-M   'P 1'
_cell_length_a   4.75632998
_cell_length_b   12.26401414
_cell_length_c   26.76136400
_cell_angle_alpha   90.00000000
_cell_angle_beta   90.00000000
_cell_angle_gamma   90.00000000
_symmetry_Int_Tables_number   1
_chemical_formula_structural   Li2Te2O5
_chemical_formula_sum   'Li8 Te8 O20'
_cell_volume   1561.03580637
_cell_formula_units_Z   4
loop_
 _symmetry_equiv_pos_site_id
 _symmetry_equiv_pos_as_xyz
  1  'x, y, z'
loop_
 _atom_site_type_symbol
 _atom_site_label
 _atom_site_symmetry_multiplicity
 _atom_site_fract_x
 _atom_site_fract_y
 _atom_site_fract_z
 _atom_site_occupancy
  Li  Li1  1  0.187173  0.790694  0.475145  1
  Li  Li2  1  0.687173  0.709306  0.524855  1
  Li  Li3  1  0.812827  0.209306  0.524855  1
  Li  Li4  1  0.312827  0.290694  0.475145  1
  Li  Li5  1  0.289859  0.545834  0.524534  1
  Li  Li6  1  0.789859  0.954166  0.475466  1
  Li  Li7  1  0.710141  0.454166  0.475466  1
  Li  Li8  1  0.210141  0.045834  0.524534  1
  Te  Te9  1  0.171485  0.765178  0.599666  1
  Te  Te10  1  0.671485  0.734822  0.400334  1
  Te  Te11  1  0.828515  0.234822  0.400334  1
  Te  Te12  1  0.328515  0.265178  0.599666  1
  Te  Te13  1  0.181082  0.508532  0.400353  1
  Te  Te14  1  0.681082  0.991468  0.599647  1
  Te  Te15  1  0.818918  0.491468  0.599647  1
  Te  Te16  1  0.318918  0.008531  0.400353  1
  O  O17  1  0.013648  0.369242  0.374719  1
  O  O18  1  0.513648  0.130758  0.625281  1
  O  O19  1  0.986352  0.630758  0.625281  1
  O  O20  1  0.486352  0.869242  0.374719  1
  O  O21  1  0.184002  0.181375  0.423197  1
  O  O22  1  0.684002  0.318625  0.576803  1
  O  O23  1  0.815998  0.818625  0.576803  1
  O  O24  1  0.315998  0.681375  0.423197  1
  O  O25  1  0.226820  0.208705  0.536865  1
  O  O26  1  0.726820  0.291295  0.463135  1
  O  O27  1  0.773180  0.791295  0.463135  1
  O  O28  1  0.273180  0.708705  0.536865  1
  O  O29  1  0.317728  0.941772  0.579364  1
  O  O30  1  0.817728  0.558228  0.420636  1
  O  O31  1  0.682272  0.058228  0.420636  1
  O  O32  1  0.182272  0.441772  0.579364  1
  O  O33  1  0.281469  0.453523  0.463583  1
  O  O34  1  0.781469  0.046477  0.536417  1
  O  O35  1  0.718531  0.546477  0.536417  1
  O  O36  1  0.218531  0.953523  0.463583  1
