# generated using pymatgen
data_SbPO4
_symmetry_space_group_name_H-M   'P 1'
_cell_length_a   4.83012407
_cell_length_b   6.79198283
_cell_length_c   22.99354358
_cell_angle_alpha   90.00000000
_cell_angle_beta   90.14713904
_cell_angle_gamma   90.00000000
_symmetry_Int_Tables_number   1
_chemical_formula_structural   SbPO4
_chemical_formula_sum   'Sb2 P2 O8'
_cell_volume   754.32645724
_cell_formula_units_Z   2
loop_
 _symmetry_equiv_pos_site_id
 _symmetry_equiv_pos_as_xyz
  1  'x, y, z'
loop_
 _atom_site_type_symbol
 _atom_site_label
 _atom_site_symmetry_multiplicity
 _atom_site_fract_x
 _atom_site_fract_y
 _atom_site_fract_z
 _atom_site_occupancy
  Sb  Sb1  1  0.017321  0.250000  0.568600  1
  Sb  Sb2  1  0.482707  0.750000  0.431400  1
  P  P3  1  0.537513  0.250000  0.473746  1
  P  P4  1  0.962514  0.750000  0.526254  1
  O  O5  1  0.040960  0.566558  0.560685  1
  O  O6  1  0.459068  0.066558  0.439315  1
  O  O7  1  0.459068  0.433442  0.439315  1
  O  O8  1  0.040960  0.933442  0.560685  1
  O  O9  1  0.093313  0.750000  0.463241  1
  O  O10  1  0.406714  0.250000  0.536759  1
  O  O11  1  0.643182  0.750000  0.512638  1
  O  O12  1  0.856846  0.250000  0.487362  1
