# generated using pymatgen
data_RbHfMg6O7
_symmetry_space_group_name_H-M   'P 1'
_cell_length_a   4.09029718
_cell_length_b   4.09029718
_cell_length_c   29.56765400
_cell_angle_alpha   90.00000000
_cell_angle_beta   90.00000000
_cell_angle_gamma   90.00000000
_symmetry_Int_Tables_number   1
_chemical_formula_structural   RbHfMg6O7
_chemical_formula_sum   'Rb1 Hf1 Mg6 O7'
_cell_volume   494.68255246
_cell_formula_units_Z   1
loop_
 _symmetry_equiv_pos_site_id
 _symmetry_equiv_pos_as_xyz
  1  'x, y, z'
loop_
 _atom_site_type_symbol
 _atom_site_label
 _atom_site_symmetry_multiplicity
 _atom_site_fract_x
 _atom_site_fract_y
 _atom_site_fract_z
 _atom_site_occupancy
  Rb  Rb1  1  -0.000000  0.000000  0.328274  1
  Hf  Hf2  1  0.500000  0.500000  0.401325  1
  Mg  Mg3  1  0.000000  -0.000000  0.570621  1
  Mg  Mg4  1  0.500000  0.500000  0.568025  1
  Mg  Mg5  1  0.500000  0.000000  0.654730  1
  Mg  Mg6  1  0.500000  -0.000000  0.485365  1
  Mg  Mg7  1  -0.000000  0.500000  0.654730  1
  Mg  Mg8  1  0.000000  0.500000  0.485365  1
  O  O9  1  -0.000000  0.000000  0.504474  1
  O  O10  1  0.500000  0.500000  0.337745  1
  O  O11  1  0.500000  0.500000  0.499998  1
  O  O12  1  0.500000  0.000000  0.418576  1
  O  O13  1  0.500000  0.000000  0.586098  1
  O  O14  1  -0.000000  0.500000  0.418576  1
  O  O15  1  -0.000000  0.500000  0.586098  1
