# generated using pymatgen
data_TbCl3
_symmetry_space_group_name_H-M   'P 1'
_cell_length_a   3.79546908
_cell_length_b   8.49442663
_cell_length_c   23.98068400
_cell_angle_alpha   90.00000000
_cell_angle_beta   90.00000000
_cell_angle_gamma   90.00000000
_symmetry_Int_Tables_number   1
_chemical_formula_structural   TbCl3
_chemical_formula_sum   'Tb2 Cl6'
_cell_volume   773.14525275
_cell_formula_units_Z   2
loop_
 _symmetry_equiv_pos_site_id
 _symmetry_equiv_pos_as_xyz
  1  'x, y, z'
loop_
 _atom_site_type_symbol
 _atom_site_label
 _atom_site_symmetry_multiplicity
 _atom_site_fract_x
 _atom_site_fract_y
 _atom_site_fract_z
 _atom_site_occupancy
  Tb  Tb1  1  0.500000  0.000000  0.494616  1
  Tb  Tb2  1  0.000000  0.500000  0.505384  1
  Cl  Cl3  1  -0.000000  0.817161  0.550837  1
  Cl  Cl4  1  0.500000  0.682839  0.449163  1
  Cl  Cl5  1  0.500000  0.500000  0.583070  1
  Cl  Cl6  1  0.000000  0.000000  0.416930  1
  Cl  Cl7  1  0.000000  0.182839  0.550837  1
  Cl  Cl8  1  0.500000  0.317161  0.449163  1
