# generated using pymatgen
data_CuO
_symmetry_space_group_name_H-M   'P 1'
_cell_length_a   2.80957656
_cell_length_b   6.56856275
_cell_length_c   23.70285900
_cell_angle_alpha   90.00000000
_cell_angle_beta   90.00000000
_cell_angle_gamma   90.00000000
_symmetry_Int_Tables_number   1
_chemical_formula_structural   CuO
_chemical_formula_sum   'Cu4 O4'
_cell_volume   437.43341697
_cell_formula_units_Z   4
loop_
 _symmetry_equiv_pos_site_id
 _symmetry_equiv_pos_as_xyz
  1  'x, y, z'
loop_
 _atom_site_type_symbol
 _atom_site_label
 _atom_site_symmetry_multiplicity
 _atom_site_fract_x
 _atom_site_fract_y
 _atom_site_fract_z
 _atom_site_occupancy
  Cu  Cu1  1  0.500000  0.891139  0.502252  1
  Cu  Cu2  1  0.500000  0.391139  0.497748  1
  Cu  Cu3  1  0.000000  0.646483  0.422249  1
  Cu  Cu4  1  0.000000  0.146483  0.577751  1
  O  O5  1  0.500000  0.957860  0.577008  1
  O  O6  1  0.500000  0.834314  0.426952  1
  O  O7  1  0.500000  0.457860  0.422992  1
  O  O8  1  0.500000  0.334314  0.573048  1
