# generated using pymatgen
data_Li2H2Pd
_symmetry_space_group_name_H-M   'P 1'
_cell_length_a   3.06482101
_cell_length_b   3.06482101
_cell_length_c   23.38459400
_cell_angle_alpha   90.00000000
_cell_angle_beta   90.00000000
_cell_angle_gamma   90.00000000
_symmetry_Int_Tables_number   1
_chemical_formula_structural   Li2H2Pd
_chemical_formula_sum   'Li2 H2 Pd1'
_cell_volume   219.65448054
_cell_formula_units_Z   1
loop_
 _symmetry_equiv_pos_site_id
 _symmetry_equiv_pos_as_xyz
  1  'x, y, z'
loop_
 _atom_site_type_symbol
 _atom_site_label
 _atom_site_symmetry_multiplicity
 _atom_site_fract_x
 _atom_site_fract_y
 _atom_site_fract_z
 _atom_site_occupancy
  Li  Li1  1  0.000000  -0.000000  0.436211  1
  Li  Li2  1  0.000000  -0.000000  0.563789  1
  H  H3  1  0.500000  0.500000  0.573253  1
  H  H4  1  0.500000  0.500000  0.426747  1
  Pd  Pd5  1  0.500000  0.500000  0.500000  1
