# generated using pymatgen
data_YBi3F15
_symmetry_space_group_name_H-M   'P 1'
_cell_length_a   10.95252875
_cell_length_b   11.26898165
_cell_length_c   28.79767100
_cell_angle_alpha   90.00000000
_cell_angle_beta   88.79528796
_cell_angle_gamma   90.00000000
_symmetry_Int_Tables_number   1
_chemical_formula_structural   YBi3F15
_chemical_formula_sum   'Y2 Bi6 F30'
_cell_volume   3553.53364219
_cell_formula_units_Z   2
loop_
 _symmetry_equiv_pos_site_id
 _symmetry_equiv_pos_as_xyz
  1  'x, y, z'
loop_
 _atom_site_type_symbol
 _atom_site_label
 _atom_site_symmetry_multiplicity
 _atom_site_fract_x
 _atom_site_fract_y
 _atom_site_fract_z
 _atom_site_occupancy
  Y  Y1  1  0.431962  0.250000  0.416924  1
  Y  Y2  1  0.273500  0.750000  0.583076  1
  Bi  Bi3  1  0.852731  0.500000  0.500000  1
  Bi  Bi4  1  0.195542  0.443370  0.500676  1
  Bi  Bi5  1  0.509920  0.556630  0.499324  1
  Bi  Bi6  1  0.852731  0.000000  0.500000  1
  Bi  Bi7  1  0.195542  0.056630  0.500676  1
  Bi  Bi8  1  0.509920  0.943370  0.499324  1
  F  F9  1  0.569869  0.250000  0.359999  1
  F  F10  1  0.188975  0.250000  0.522391  1
  F  F11  1  0.392602  0.250000  0.342910  1
  F  F12  1  0.135592  0.750000  0.640001  1
  F  F13  1  0.312859  0.750000  0.657090  1
  F  F14  1  0.516487  0.750000  0.477609  1
  F  F15  1  0.732391  0.608163  0.464963  1
  F  F16  1  0.010831  0.541315  0.460996  1
  F  F17  1  0.325624  0.588244  0.472053  1
  F  F18  1  0.973070  0.391837  0.535037  1
  F  F19  1  0.379838  0.411756  0.527947  1
  F  F20  1  0.694631  0.458685  0.539004  1
  F  F21  1  0.888398  0.867555  0.544901  1
  F  F22  1  0.179034  0.900326  0.552151  1
  F  F23  1  0.430455  0.869045  0.564914  1
  F  F24  1  0.817064  0.132445  0.455099  1
  F  F25  1  0.275007  0.130955  0.435086  1
  F  F26  1  0.526428  0.099674  0.447849  1
  F  F27  1  0.817064  0.367555  0.455099  1
  F  F28  1  0.275007  0.369045  0.435086  1
  F  F29  1  0.526428  0.400326  0.447849  1
  F  F30  1  0.888398  0.632445  0.544901  1
  F  F31  1  0.179034  0.599674  0.552151  1
  F  F32  1  0.430455  0.630955  0.564914  1
  F  F33  1  0.732391  0.891837  0.464963  1
  F  F34  1  0.010831  0.958685  0.460996  1
  F  F35  1  0.325624  0.911756  0.472053  1
  F  F36  1  0.973070  0.108163  0.535037  1
  F  F37  1  0.379838  0.088244  0.527947  1
  F  F38  1  0.694631  0.041315  0.539004  1
