# generated using pymatgen
data_Mg(BiO2)2
_symmetry_space_group_name_H-M   'P 1'
_cell_length_a   3.36858571
_cell_length_b   10.14558788
_cell_length_c   23.93683400
_cell_angle_alpha   90.00000000
_cell_angle_beta   90.00000000
_cell_angle_gamma   90.00387414
_symmetry_Int_Tables_number   1
_chemical_formula_structural   Mg(BiO2)2
_chemical_formula_sum   'Mg2 Bi4 O8'
_cell_volume   818.07199611
_cell_formula_units_Z   2
loop_
 _symmetry_equiv_pos_site_id
 _symmetry_equiv_pos_as_xyz
  1  'x, y, z'
loop_
 _atom_site_type_symbol
 _atom_site_label
 _atom_site_symmetry_multiplicity
 _atom_site_fract_x
 _atom_site_fract_y
 _atom_site_fract_z
 _atom_site_occupancy
  Mg  Mg1  1  0.995944  0.364813  0.505748  1
  Mg  Mg2  1  0.495882  0.859179  0.494253  1
  Bi  Bi3  1  0.495849  0.151667  0.431112  1
  Bi  Bi4  1  0.995908  0.630485  0.429146  1
  Bi  Bi5  1  0.496138  0.593530  0.570855  1
  Bi  Bi6  1  0.995925  0.072328  0.568871  1
  O  O7  1  0.495998  0.932341  0.574119  1
  O  O8  1  0.996131  0.454518  0.581622  1
  O  O9  1  0.496061  0.769517  0.418384  1
  O  O10  1  0.996051  0.291692  0.425878  1
  O  O11  1  0.996092  0.001532  0.482935  1
  O  O12  1  0.496122  0.499795  0.488955  1
  O  O13  1  0.496171  0.222497  0.517065  1
  O  O14  1  0.996092  0.724244  0.511059  1
