# generated using pymatgen
data_MnNiO3
_symmetry_space_group_name_H-M   'P 1'
_cell_length_a   4.98791269
_cell_length_b   4.98791269
_cell_length_c   25.07258499
_cell_angle_alpha   90.00000000
_cell_angle_beta   90.00000000
_cell_angle_gamma   60.00000658
_symmetry_Int_Tables_number   1
_chemical_formula_structural   MnNiO3
_chemical_formula_sum   'Mn2 Ni2 O6'
_cell_volume   540.21601948
_cell_formula_units_Z   2
loop_
 _symmetry_equiv_pos_site_id
 _symmetry_equiv_pos_as_xyz
  1  'x, y, z'
loop_
 _atom_site_type_symbol
 _atom_site_label
 _atom_site_symmetry_multiplicity
 _atom_site_fract_x
 _atom_site_fract_y
 _atom_site_fract_z
 _atom_site_occupancy
  Mn  Mn1  1  0.333333  0.333333  0.491066  1
  Mn  Mn2  1  0.666667  0.666667  0.508934  1
  Ni  Ni3  1  0.333333  0.333333  0.588661  1
  Ni  Ni4  1  0.666667  0.666667  0.411339  1
  O  O5  1  0.015519  0.357950  0.544867  1
  O  O6  1  0.626531  0.015519  0.544867  1
  O  O7  1  0.357950  0.626531  0.544867  1
  O  O8  1  0.984481  0.642050  0.455133  1
  O  O9  1  0.642050  0.373469  0.455133  1
  O  O10  1  0.373469  0.984481  0.455133  1
