# generated using pymatgen
data_Ca(NCl)2
_symmetry_space_group_name_H-M   'P 1'
_cell_length_a   5.24864656
_cell_length_b   7.60353323
_cell_length_c   23.90373100
_cell_angle_alpha   90.00000000
_cell_angle_beta   90.00000000
_cell_angle_gamma   90.00000000
_symmetry_Int_Tables_number   1
_chemical_formula_structural   Ca(NCl)2
_chemical_formula_sum   'Ca2 N4 Cl4'
_cell_volume   953.95627662
_cell_formula_units_Z   2
loop_
 _symmetry_equiv_pos_site_id
 _symmetry_equiv_pos_as_xyz
  1  'x, y, z'
loop_
 _atom_site_type_symbol
 _atom_site_label
 _atom_site_symmetry_multiplicity
 _atom_site_fract_x
 _atom_site_fract_y
 _atom_site_fract_z
 _atom_site_occupancy
  Ca  Ca1  1  0.244566  0.250000  0.499024  1
  Ca  Ca2  1  0.755434  0.750000  0.499024  1
  N  N3  1  0.079285  0.750000  0.582780  1
  N  N4  1  0.920715  0.250000  0.582780  1
  N  N5  1  0.588630  0.250000  0.421901  1
  N  N6  1  0.411370  0.750000  0.421901  1
  Cl  Cl7  1  0.500000  0.500000  0.555210  1
  Cl  Cl8  1  0.500000  -0.000000  0.555210  1
  Cl  Cl9  1  0.000000  0.500000  0.441085  1
  Cl  Cl10  1  0.000000  0.000000  0.441085  1
