# generated using pymatgen
data_Bi
_symmetry_space_group_name_H-M   'P 1'
_cell_length_a   6.45466840
_cell_length_b   6.93925987
_cell_length_c   24.52060200
_cell_angle_alpha   90.00000000
_cell_angle_beta   90.00000000
_cell_angle_gamma   90.00000000
_symmetry_Int_Tables_number   1
_chemical_formula_structural   Bi
_chemical_formula_sum   Bi8
_cell_volume   1098.29300074
_cell_formula_units_Z   8
loop_
 _symmetry_equiv_pos_site_id
 _symmetry_equiv_pos_as_xyz
  1  'x, y, z'
loop_
 _atom_site_type_symbol
 _atom_site_label
 _atom_site_symmetry_multiplicity
 _atom_site_fract_x
 _atom_site_fract_y
 _atom_site_fract_z
 _atom_site_occupancy
  Bi  Bi1  1  0.500000  0.500000  0.589780  1
  Bi  Bi2  1  0.000000  0.000000  0.589780  1
  Bi  Bi3  1  0.500000  0.500000  0.410220  1
  Bi  Bi4  1  0.000000  -0.000000  0.410220  1
  Bi  Bi5  1  0.314080  0.154301  0.500000  1
  Bi  Bi6  1  0.685920  0.845699  0.500000  1
  Bi  Bi7  1  0.185920  0.654301  0.500000  1
  Bi  Bi8  1  0.814080  0.345699  0.500000  1
