# generated using pymatgen
data_As2WO7
_symmetry_space_group_name_H-M   'P 1'
_cell_length_a   8.12487801
_cell_length_b   9.92370420
_cell_length_c   26.99574922
_cell_angle_alpha   90.97793645
_cell_angle_beta   90.00000000
_cell_angle_gamma   90.00000000
_symmetry_Int_Tables_number   1
_chemical_formula_structural   As2WO7
_chemical_formula_sum   'As8 W4 O28'
_cell_volume   2176.32014118
_cell_formula_units_Z   4
loop_
 _symmetry_equiv_pos_site_id
 _symmetry_equiv_pos_as_xyz
  1  'x, y, z'
loop_
 _atom_site_type_symbol
 _atom_site_label
 _atom_site_symmetry_multiplicity
 _atom_site_fract_x
 _atom_site_fract_y
 _atom_site_fract_z
 _atom_site_occupancy
  As  As1  1  0.241219  0.755064  0.488119  1
  As  As2  1  0.741219  0.744936  0.511881  1
  As  As3  1  0.758781  0.244936  0.511881  1
  As  As4  1  0.258781  0.255064  0.488119  1
  As  As5  1  0.172187  0.003509  0.417895  1
  As  As6  1  0.672187  0.496491  0.582105  1
  As  As7  1  0.827813  0.996491  0.582105  1
  As  As8  1  0.327813  0.503509  0.417895  1
  W  W9  1  0.060268  0.638938  0.591303  1
  W  W10  1  0.560268  0.861062  0.408697  1
  W  W11  1  0.939732  0.361062  0.408697  1
  W  W12  1  0.439732  0.138938  0.591303  1
  O  O13  1  0.346380  0.980737  0.594473  1
  O  O14  1  0.846380  0.519263  0.405527  1
  O  O15  1  0.653620  0.019263  0.405527  1
  O  O16  1  0.153620  0.480737  0.594473  1
  O  O17  1  0.441171  0.786280  0.472088  1
  O  O18  1  0.941171  0.713720  0.527912  1
  O  O19  1  0.558829  0.213720  0.527912  1
  O  O20  1  0.058829  0.286280  0.472088  1
  O  O21  1  0.118753  0.891119  0.470858  1
  O  O22  1  0.618753  0.608881  0.529142  1
  O  O23  1  0.881247  0.108881  0.529142  1
  O  O24  1  0.381247  0.391119  0.470858  1
  O  O25  1  0.179058  0.611132  0.454624  1
  O  O26  1  0.679058  0.888868  0.545376  1
  O  O27  1  0.820942  0.388868  0.545376  1
  O  O28  1  0.320942  0.111132  0.454624  1
  O  O29  1  0.171834  0.405893  0.390757  1
  O  O30  1  0.671834  0.094107  0.609243  1
  O  O31  1  0.828166  0.594107  0.609243  1
  O  O32  1  0.328166  0.905893  0.390757  1
  O  O33  1  0.258007  0.224839  0.549841  1
  O  O34  1  0.758007  0.275161  0.450159  1
  O  O35  1  0.741993  0.775161  0.450159  1
  O  O36  1  0.241993  0.724839  0.549841  1
  O  O37  1  0.395440  0.230608  0.645184  1
  O  O38  1  0.895440  0.269392  0.354816  1
  O  O39  1  0.604560  0.769392  0.354816  1
  O  O40  1  0.104560  0.730608  0.645184  1
