# generated using pymatgen
data_Te3As2
_symmetry_space_group_name_H-M   'P 1'
_cell_length_a   4.07373551
_cell_length_b   4.07373496
_cell_length_c   27.30324778
_cell_angle_alpha   90.00000000
_cell_angle_beta   90.00000000
_cell_angle_gamma   59.99999563
_symmetry_Int_Tables_number   1
_chemical_formula_structural   Te3As2
_chemical_formula_sum   'Te3 As2'
_cell_volume   392.40137632
_cell_formula_units_Z   1
loop_
 _symmetry_equiv_pos_site_id
 _symmetry_equiv_pos_as_xyz
  1  'x, y, z'
loop_
 _atom_site_type_symbol
 _atom_site_label
 _atom_site_symmetry_multiplicity
 _atom_site_fract_x
 _atom_site_fract_y
 _atom_site_fract_z
 _atom_site_occupancy
  Te  Te1  1  0.000000  0.000000  0.628421  1
  Te  Te2  1  0.333333  0.333333  0.371579  1
  Te  Te3  1  0.666667  0.666667  0.500000  1
  As  As4  1  0.333333  0.333333  0.569316  1
  As  As5  1  0.000000  0.000000  0.430684  1
