# generated using pymatgen
data_Cr(WO4)2
_symmetry_space_group_name_H-M   'P 1'
_cell_length_a   4.91820535
_cell_length_b   5.12526603
_cell_length_c   25.40320300
_cell_angle_alpha   90.00000000
_cell_angle_beta   90.00000000
_cell_angle_gamma   104.26855325
_symmetry_Int_Tables_number   1
_chemical_formula_structural   Cr(WO4)2
_chemical_formula_sum   'Cr1 W2 O8'
_cell_volume   620.58755823
_cell_formula_units_Z   1
loop_
 _symmetry_equiv_pos_site_id
 _symmetry_equiv_pos_as_xyz
  1  'x, y, z'
loop_
 _atom_site_type_symbol
 _atom_site_label
 _atom_site_symmetry_multiplicity
 _atom_site_fract_x
 _atom_site_fract_y
 _atom_site_fract_z
 _atom_site_occupancy
  Cr  Cr1  1  0.062927  0.001568  0.500002  1
  W  W2  1  0.348736  0.561972  0.545851  1
  W  W3  1  0.776962  0.441183  0.454142  1
  O  O4  1  0.464495  0.477934  0.606133  1
  O  O5  1  0.219465  0.865301  0.560251  1
  O  O6  1  0.426527  0.272212  0.492168  1
  O  O7  1  0.138840  0.703882  0.462903  1
  O  O8  1  0.906390  0.137901  0.439766  1
  O  O9  1  0.661377  0.525278  0.393854  1
  O  O10  1  0.699251  0.730923  0.507825  1
  O  O11  1  0.986937  0.299202  0.537105  1
