# generated using pymatgen
data_VSb(PO4)2
_symmetry_space_group_name_H-M   'P 1'
_cell_length_a   4.87938179
_cell_length_b   5.95198005
_cell_length_c   31.24137900
_cell_angle_alpha   90.00000000
_cell_angle_beta   90.00000000
_cell_angle_gamma   90.00000000
_symmetry_Int_Tables_number   1
_chemical_formula_structural   VSb(PO4)2
_chemical_formula_sum   'V2 Sb2 P4 O16'
_cell_volume   907.31160001
_cell_formula_units_Z   2
loop_
 _symmetry_equiv_pos_site_id
 _symmetry_equiv_pos_as_xyz
  1  'x, y, z'
loop_
 _atom_site_type_symbol
 _atom_site_label
 _atom_site_symmetry_multiplicity
 _atom_site_fract_x
 _atom_site_fract_y
 _atom_site_fract_z
 _atom_site_occupancy
  V  V1  1  0.411313  0.750000  0.426935  1
  V  V2  1  0.588687  0.250000  0.573065  1
  Sb  Sb3  1  0.927786  0.250000  0.405798  1
  Sb  Sb4  1  0.072214  0.750000  0.594202  1
  P  P5  1  0.382825  0.250000  0.471567  1
  P  P6  1  0.831272  0.750000  0.365714  1
  P  P7  1  0.168728  0.250000  0.634286  1
  P  P8  1  0.617175  0.750000  0.528433  1
  O  O9  1  0.639219  0.750000  0.480075  1
  O  O10  1  0.692027  0.250000  0.459200  1
  O  O11  1  0.228741  0.046097  0.450586  1
  O  O12  1  0.228741  0.453903  0.450586  1
  O  O13  1  0.674838  0.951158  0.391944  1
  O  O14  1  0.674838  0.548842  0.391944  1
  O  O15  1  0.125499  0.750000  0.384103  1
  O  O16  1  0.201561  0.250000  0.680690  1
  O  O17  1  0.798439  0.750000  0.319310  1
  O  O18  1  0.874501  0.250000  0.615897  1
  O  O19  1  0.325162  0.048842  0.608056  1
  O  O20  1  0.325162  0.451158  0.608056  1
  O  O21  1  0.771259  0.546097  0.549414  1
  O  O22  1  0.771259  0.953903  0.549414  1
  O  O23  1  0.307973  0.750000  0.540800  1
  O  O24  1  0.360781  0.250000  0.519925  1
