# generated using pymatgen
data_Nb2CuS4
_symmetry_space_group_name_H-M   'P 1'
_cell_length_a   3.61128736
_cell_length_b   3.61128775
_cell_length_c   29.59074100
_cell_angle_alpha   90.00000000
_cell_angle_beta   90.00000000
_cell_angle_gamma   119.99999638
_symmetry_Int_Tables_number   1
_chemical_formula_structural   Nb2CuS4
_chemical_formula_sum   'Nb2 Cu1 S4'
_cell_volume   334.20322107
_cell_formula_units_Z   1
loop_
 _symmetry_equiv_pos_site_id
 _symmetry_equiv_pos_as_xyz
  1  'x, y, z'
loop_
 _atom_site_type_symbol
 _atom_site_label
 _atom_site_symmetry_multiplicity
 _atom_site_fract_x
 _atom_site_fract_y
 _atom_site_fract_z
 _atom_site_occupancy
  Nb  Nb1  1  0.666667  0.333333  0.621310  1
  Nb  Nb2  1  0.333333  0.666667  0.378690  1
  Cu  Cu3  1  0.000000  0.000000  0.500000  1
  S  S4  1  0.666667  0.333333  0.543888  1
  S  S5  1  0.333333  0.666667  0.456112  1
  S  S6  1  0.666667  0.333333  0.337965  1
  S  S7  1  0.333333  0.666667  0.662035  1
