# generated using pymatgen
data_VF4
_symmetry_space_group_name_H-M   'P 1'
_cell_length_a   11.02628748
_cell_length_b   11.02808933
_cell_length_c   24.79790200
_cell_angle_alpha   90.02146756
_cell_angle_beta   89.99568708
_cell_angle_gamma   120.00837296
_symmetry_Int_Tables_number   1
_chemical_formula_structural   VF4
_chemical_formula_sum   'V6 F24'
_cell_volume   2611.19000994
_cell_formula_units_Z   6
loop_
 _symmetry_equiv_pos_site_id
 _symmetry_equiv_pos_as_xyz
  1  'x, y, z'
loop_
 _atom_site_type_symbol
 _atom_site_label
 _atom_site_symmetry_multiplicity
 _atom_site_fract_x
 _atom_site_fract_y
 _atom_site_fract_z
 _atom_site_occupancy
  V  V1  1  0.832873  0.783648  0.464812  1
  V  V2  1  0.716500  0.049650  0.464777  1
  V  V3  1  0.216086  0.666469  0.535223  1
  V  V4  1  0.450442  0.667270  0.464777  1
  V  V5  1  0.950028  0.284089  0.535223  1
  V  V6  1  0.833656  0.550090  0.535188  1
  F  F7  1  0.650216  0.452163  0.532783  1
  F  F8  1  0.893983  0.226387  0.458363  1
  F  F9  1  0.821726  0.949241  0.481599  1
  F  F10  1  0.832205  0.606258  0.458341  1
  F  F11  1  0.392844  0.665771  0.541640  1
  F  F12  1  0.618614  0.135191  0.466998  1
  F  F13  1  0.782624  0.777943  0.397374  1
  F  F14  1  0.627175  0.678420  0.481576  1
  F  F15  1  0.171466  0.616200  0.602648  1
  F  F16  1  0.722259  0.004945  0.397361  1
  F  F17  1  0.550884  0.872955  0.481578  1
  F  F18  1  0.301633  0.849894  0.532951  1
  F  F19  1  0.364895  0.483845  0.467049  1
  F  F20  1  0.115644  0.460784  0.518422  1
  F  F21  1  0.944269  0.328794  0.602639  1
  F  F22  1  0.495062  0.717539  0.397352  1
  F  F23  1  0.039353  0.655319  0.518424  1
  F  F24  1  0.883906  0.555796  0.602626  1
  F  F25  1  0.047914  0.198548  0.533002  1
  F  F26  1  0.273685  0.667968  0.458360  1
  F  F27  1  0.834324  0.727481  0.541659  1
  F  F28  1  0.844803  0.384498  0.518401  1
  F  F29  1  0.772545  0.107352  0.541637  1
  F  F30  1  0.016313  0.881576  0.467217  1
