# generated using pymatgen
data_CaP2H6O7
_symmetry_space_group_name_H-M   'P 1'
_cell_length_a   6.74955223
_cell_length_b   7.00623568
_cell_length_c   29.50675500
_cell_angle_alpha   90.00000000
_cell_angle_beta   90.00000000
_cell_angle_gamma   92.10619346
_symmetry_Int_Tables_number   1
_chemical_formula_structural   CaP2H6O7
_chemical_formula_sum   'Ca2 P4 H12 O14'
_cell_volume   1394.40091373
_cell_formula_units_Z   2
loop_
 _symmetry_equiv_pos_site_id
 _symmetry_equiv_pos_as_xyz
  1  'x, y, z'
loop_
 _atom_site_type_symbol
 _atom_site_label
 _atom_site_symmetry_multiplicity
 _atom_site_fract_x
 _atom_site_fract_y
 _atom_site_fract_z
 _atom_site_occupancy
  Ca  Ca1  1  0.507028  0.807922  0.556590  1
  Ca  Ca2  1  0.243165  0.842496  0.443410  1
  P  P3  1  0.593398  0.316508  0.550143  1
  P  P4  1  0.156795  0.333909  0.449857  1
  P  P5  1  0.035687  0.878502  0.558299  1
  P  P6  1  0.714507  0.771914  0.441701  1
  H  H7  1  0.072363  0.978821  0.361675  1
  H  H8  1  0.677830  0.671597  0.638325  1
  H  H9  1  0.298502  0.022825  0.358710  1
  H  H10  1  0.451691  0.627592  0.641290  1
  H  H11  1  0.855773  0.503765  0.561945  1
  H  H12  1  0.894421  0.146652  0.438055  1
  H  H13  1  0.602330  0.298586  0.502441  1
  H  H14  1  0.147863  0.351831  0.497559  1
  H  H15  1  0.986408  0.072187  0.556428  1
  H  H16  1  0.763786  0.578230  0.443572  1
  H  H17  1  0.177385  0.981492  0.622629  1
  H  H18  1  0.572809  0.668926  0.377371  1
  O  O19  1  0.185854  0.830850  0.522260  1
  O  O20  1  0.535560  0.124132  0.570294  1
  O  O21  1  0.284191  0.167375  0.438285  1
  O  O22  1  0.466002  0.483042  0.561715  1
  O  O23  1  0.930149  0.285894  0.435342  1
  O  O24  1  0.820044  0.364524  0.564658  1
  O  O25  1  0.550411  0.733052  0.639380  1
  O  O26  1  0.199782  0.917365  0.360620  1
  O  O27  1  0.850396  0.750669  0.560613  1
  O  O28  1  0.899797  0.899749  0.439387  1
  O  O29  1  0.154517  0.860967  0.606377  1
  O  O30  1  0.595676  0.789451  0.393623  1
  O  O31  1  0.214633  0.526286  0.429706  1
  O  O32  1  0.564339  0.819568  0.477740  1
