# generated using pymatgen
data_Nb3I8
_symmetry_space_group_name_H-M   'P 1'
_cell_length_a   7.66096085
_cell_length_b   7.66096086
_cell_length_c   24.17925784
_cell_angle_alpha   90.00000000
_cell_angle_beta   90.00000000
_cell_angle_gamma   60.00000442
_symmetry_Int_Tables_number   1
_chemical_formula_structural   Nb3I8
_chemical_formula_sum   'Nb3 I8'
_cell_volume   1228.96666804
_cell_formula_units_Z   1
loop_
 _symmetry_equiv_pos_site_id
 _symmetry_equiv_pos_as_xyz
  1  'x, y, z'
loop_
 _atom_site_type_symbol
 _atom_site_label
 _atom_site_symmetry_multiplicity
 _atom_site_fract_x
 _atom_site_fract_y
 _atom_site_fract_z
 _atom_site_occupancy
  Nb  Nb1  1  0.404505  0.797748  0.501709  1
  Nb  Nb2  1  0.797748  0.797748  0.501709  1
  Nb  Nb3  1  0.797748  0.404505  0.501709  1
  I  I4  1  0.999091  0.500454  0.421855  1
  I  I5  1  0.500454  0.500454  0.421855  1
  I  I6  1  0.500454  0.999091  0.421855  1
  I  I7  1  0.660827  0.169587  0.565636  1
  I  I8  1  0.169587  0.169587  0.565636  1
  I  I9  1  0.169587  0.660827  0.565636  1
  I  I10  1  -0.000000  -0.000000  0.440564  1
  I  I11  1  0.666667  0.666667  0.591834  1
