# generated using pymatgen
data_Fe(CoO3)2
_symmetry_space_group_name_H-M   'P 1'
_cell_length_a   4.94461037
_cell_length_b   5.00682881
_cell_length_c   21.89947600
_cell_angle_alpha   90.00000000
_cell_angle_beta   90.00000000
_cell_angle_gamma   119.58977199
_symmetry_Int_Tables_number   1
_chemical_formula_structural   Fe(CoO3)2
_chemical_formula_sum   'Fe1 Co2 O6'
_cell_volume   471.45432840
_cell_formula_units_Z   1
loop_
 _symmetry_equiv_pos_site_id
 _symmetry_equiv_pos_as_xyz
  1  'x, y, z'
loop_
 _atom_site_type_symbol
 _atom_site_label
 _atom_site_symmetry_multiplicity
 _atom_site_fract_x
 _atom_site_fract_y
 _atom_site_fract_z
 _atom_site_occupancy
  Fe  Fe1  1  -0.000000  0.000000  0.500000  1
  Co  Co2  1  0.330933  0.661865  0.500000  1
  Co  Co3  1  0.669067  0.338135  0.500000  1
  O  O4  1  0.666928  -0.000000  0.457592  1
  O  O5  1  0.333072  0.000000  0.542408  1
  O  O6  1  0.653686  0.651564  0.544194  1
  O  O7  1  0.997878  0.651564  0.455806  1
  O  O8  1  0.346314  0.348436  0.455806  1
  O  O9  1  0.002122  0.348436  0.544194  1
