# generated using pymatgen
data_CrSbO4
_symmetry_space_group_name_H-M   'P 1'
_cell_length_a   3.11735596
_cell_length_b   5.33994427
_cell_length_c   22.04023400
_cell_angle_alpha   90.00000000
_cell_angle_beta   90.00000000
_cell_angle_gamma   90.00000000
_symmetry_Int_Tables_number   1
_chemical_formula_structural   CrSbO4
_chemical_formula_sum   'Cr1 Sb1 O4'
_cell_volume   366.89291168
_cell_formula_units_Z   1
loop_
 _symmetry_equiv_pos_site_id
 _symmetry_equiv_pos_as_xyz
  1  'x, y, z'
loop_
 _atom_site_type_symbol
 _atom_site_label
 _atom_site_symmetry_multiplicity
 _atom_site_fract_x
 _atom_site_fract_y
 _atom_site_fract_z
 _atom_site_occupancy
  Cr  Cr1  1  0.999959  0.500000  0.500000  1
  Sb  Sb2  1  0.500021  0.000000  0.500000  1
  O  O3  1  0.000018  0.163531  0.546413  1
  O  O4  1  0.499969  0.671422  0.542432  1
  O  O5  1  0.000018  0.836469  0.453587  1
  O  O6  1  0.499969  0.328578  0.457568  1
