# generated using pymatgen
data_MgCl2
_symmetry_space_group_name_H-M   'P 1'
_cell_length_a   7.04677342
_cell_length_b   7.08925557
_cell_length_c   23.44731556
_cell_angle_alpha   90.01629947
_cell_angle_beta   90.03551338
_cell_angle_gamma   64.83186722
_symmetry_Int_Tables_number   1
_chemical_formula_structural   MgCl2
_chemical_formula_sum   'Mg2 Cl4'
_cell_volume   1060.13981338
_cell_formula_units_Z   2
loop_
 _symmetry_equiv_pos_site_id
 _symmetry_equiv_pos_as_xyz
  1  'x, y, z'
loop_
 _atom_site_type_symbol
 _atom_site_label
 _atom_site_symmetry_multiplicity
 _atom_site_fract_x
 _atom_site_fract_y
 _atom_site_fract_z
 _atom_site_occupancy
  Mg  Mg1  1  0.133620  0.636098  0.499854  1
  Mg  Mg2  1  0.866380  0.363902  0.500146  1
  Cl  Cl3  1  0.001293  0.499468  0.574001  1
  Cl  Cl4  1  0.998707  0.500532  0.425999  1
  Cl  Cl5  1  -0.000000  -0.000000  0.500000  1
  Cl  Cl6  1  0.500000  0.500000  0.500000  1
