# generated using pymatgen
data_AgBi(PS3)2
_symmetry_space_group_name_H-M   'P 1'
_cell_length_a   6.52013465
_cell_length_b   11.72418945
_cell_length_c   24.46133200
_cell_angle_alpha   90.00000000
_cell_angle_beta   90.00000000
_cell_angle_gamma   85.56728415
_symmetry_Int_Tables_number   1
_chemical_formula_structural   AgBi(PS3)2
_chemical_formula_sum   'Ag2 Bi2 P4 S12'
_cell_volume   1864.31149932
_cell_formula_units_Z   2
loop_
 _symmetry_equiv_pos_site_id
 _symmetry_equiv_pos_as_xyz
  1  'x, y, z'
loop_
 _atom_site_type_symbol
 _atom_site_label
 _atom_site_symmetry_multiplicity
 _atom_site_fract_x
 _atom_site_fract_y
 _atom_site_fract_z
 _atom_site_occupancy
  Ag  Ag1  1  0.596997  0.081902  0.535864  1
  Ag  Ag2  1  0.656305  0.300886  0.464136  1
  Bi  Bi3  1  0.103099  0.497338  0.513570  1
  Bi  Bi4  1  0.150203  0.885450  0.486430  1
  P  P5  1  0.686469  0.775709  0.510690  1
  P  P6  1  0.155981  0.188138  0.453773  1
  P  P7  1  0.097321  0.194649  0.546227  1
  P  P8  1  0.566834  0.607079  0.489310  1
  S  S9  1  0.467831  0.857078  0.560974  1
  S  S10  1  0.899169  0.158747  0.413699  1
  S  S11  1  0.508820  0.529979  0.560255  1
  S  S12  1  0.354134  0.224041  0.586301  1
  S  S13  1  0.945042  0.736696  0.558046  1
  S  S14  1  0.974071  0.037222  0.562784  1
  S  S15  1  0.785471  0.525710  0.439026  1
  S  S16  1  0.279231  0.345566  0.437216  1
  S  S17  1  0.744482  0.852809  0.439745  1
  S  S18  1  0.308260  0.646092  0.441954  1
  S  S19  1  0.865925  0.321890  0.557565  1
  S  S20  1  0.387378  0.060898  0.442435  1
