# generated using pymatgen
data_LaP3H8O7
_symmetry_space_group_name_H-M   'P 1'
_cell_length_a   7.12614807
_cell_length_b   9.68906813
_cell_length_c   28.17363700
_cell_angle_alpha   90.00000000
_cell_angle_beta   90.00000000
_cell_angle_gamma   109.93907835
_symmetry_Int_Tables_number   1
_chemical_formula_structural   LaP3H8O7
_chemical_formula_sum   'La2 P6 H16 O14'
_cell_volume   1828.66174134
_cell_formula_units_Z   2
loop_
 _symmetry_equiv_pos_site_id
 _symmetry_equiv_pos_as_xyz
  1  'x, y, z'
loop_
 _atom_site_type_symbol
 _atom_site_label
 _atom_site_symmetry_multiplicity
 _atom_site_fract_x
 _atom_site_fract_y
 _atom_site_fract_z
 _atom_site_occupancy
  La  La1  1  0.162651  0.350214  0.487015  1
  La  La2  1  0.837349  0.649786  0.512985  1
  P  P3  1  0.358578  0.740738  0.476959  1
  P  P4  1  0.641422  0.259262  0.523041  1
  P  P5  1  0.995187  0.978906  0.431286  1
  P  P6  1  0.004813  0.021094  0.568714  1
  P  P7  1  0.428263  0.473092  0.602322  1
  P  P8  1  0.571737  0.526908  0.397678  1
  H  H9  1  0.371518  0.801836  0.430778  1
  H  H10  1  0.628482  0.198164  0.569222  1
  H  H11  1  0.363176  0.857201  0.507759  1
  H  H12  1  0.636824  0.142799  0.492241  1
  H  H13  1  0.794891  0.978207  0.434634  1
  H  H14  1  0.205109  0.021793  0.565366  1
  H  H15  1  0.009277  0.936840  0.383270  1
  H  H16  1  0.990723  0.063160  0.616730  1
  H  H17  1  0.406953  0.543355  0.645339  1
  H  H18  1  0.593047  0.456645  0.354661  1
  H  H19  1  0.400068  0.326862  0.616857  1
  H  H20  1  0.599932  0.673138  0.383143  1
  H  H21  1  0.929604  0.299122  0.390744  1
  H  H22  1  0.070396  0.700878  0.609256  1
  H  H23  1  0.836461  0.398925  0.422455  1
  H  H24  1  0.163539  0.601075  0.577545  1
  O  O25  1  0.158125  0.615757  0.482153  1
  O  O26  1  0.841875  0.384243  0.517847  1
  O  O27  1  0.539023  0.694439  0.485729  1
  O  O28  1  0.460977  0.305561  0.514271  1
  O  O29  1  0.138923  0.133796  0.437889  1
  O  O30  1  0.861077  0.866204  0.562111  1
  O  O31  1  0.017637  0.858863  0.463129  1
  O  O32  1  0.982363  0.141137  0.536871  1
  O  O33  1  0.253958  0.468965  0.570158  1
  O  O34  1  0.746042  0.531035  0.429842  1
  O  O35  1  0.639403  0.544707  0.584521  1
  O  O36  1  0.360597  0.455293  0.415479  1
  O  O37  1  0.886345  0.312815  0.422617  1
  O  O38  1  0.113655  0.687185  0.577383  1
