# generated using pymatgen
data_MnNb2Zn2O8
_symmetry_space_group_name_H-M   'P 1'
_cell_length_a   5.34385252
_cell_length_b   6.06946508
_cell_length_c   27.02793092
_cell_angle_alpha   90.00000000
_cell_angle_beta   89.82637438
_cell_angle_gamma   90.00000000
_symmetry_Int_Tables_number   1
_chemical_formula_structural   MnNb2Zn2O8
_chemical_formula_sum   'Mn2 Nb4 Zn4 O16'
_cell_volume   876.62870521
_cell_formula_units_Z   2
loop_
 _symmetry_equiv_pos_site_id
 _symmetry_equiv_pos_as_xyz
  1  'x, y, z'
loop_
 _atom_site_type_symbol
 _atom_site_label
 _atom_site_symmetry_multiplicity
 _atom_site_fract_x
 _atom_site_fract_y
 _atom_site_fract_z
 _atom_site_occupancy
  Mn  Mn1  1  0.750000  0.345184  0.500000  1
  Mn  Mn2  1  0.250000  0.654816  0.500000  1
  Nb  Nb3  1  0.736789  0.842256  0.415890  1
  Nb  Nb4  1  0.763211  0.842256  0.584110  1
  Nb  Nb5  1  0.263211  0.157744  0.584110  1
  Nb  Nb6  1  0.236789  0.157744  0.415890  1
  Zn  Zn7  1  0.769782  0.347940  0.639032  1
  Zn  Zn8  1  0.730218  0.347940  0.360968  1
  Zn  Zn9  1  0.230218  0.652060  0.360968  1
  Zn  Zn10  1  0.269782  0.652060  0.639032  1
  O  O11  1  0.071105  0.886014  0.449630  1
  O  O12  1  0.428895  0.886014  0.550370  1
  O  O13  1  0.928895  0.113987  0.550370  1
  O  O14  1  0.571105  0.113987  0.449630  1
  O  O15  1  0.593942  0.626839  0.456659  1
  O  O16  1  0.906058  0.626839  0.543341  1
  O  O17  1  0.406058  0.373161  0.543341  1
  O  O18  1  0.093942  0.373161  0.456659  1
  O  O19  1  0.433902  0.897966  0.372629  1
  O  O20  1  0.066098  0.897966  0.627371  1
  O  O21  1  0.374873  0.362182  0.363317  1
  O  O22  1  0.125127  0.362182  0.636683  1
  O  O23  1  0.625127  0.637818  0.636683  1
  O  O24  1  0.874873  0.637818  0.363317  1
  O  O25  1  0.933902  0.102034  0.372629  1
  O  O26  1  0.566098  0.102034  0.627371  1
