# generated using pymatgen
data_TlI
_symmetry_space_group_name_H-M   'P 1'
_cell_length_a   4.95210139
_cell_length_b   4.91642492
_cell_length_c   23.63384300
_cell_angle_alpha   90.00000000
_cell_angle_beta   90.00000000
_cell_angle_gamma   90.00000000
_symmetry_Int_Tables_number   1
_chemical_formula_structural   TlI
_chemical_formula_sum   'Tl2 I2'
_cell_volume   575.40454161
_cell_formula_units_Z   2
loop_
 _symmetry_equiv_pos_site_id
 _symmetry_equiv_pos_as_xyz
  1  'x, y, z'
loop_
 _atom_site_type_symbol
 _atom_site_label
 _atom_site_symmetry_multiplicity
 _atom_site_fract_x
 _atom_site_fract_y
 _atom_site_fract_z
 _atom_site_occupancy
  Tl  Tl1  1  0.000000  0.500000  0.574437  1
  Tl  Tl2  1  0.500000  0.000000  0.425563  1
  I  I3  1  -0.000000  0.500000  0.434973  1
  I  I4  1  0.500000  0.000000  0.565027  1
