# generated using pymatgen
data_AgClO2
_symmetry_space_group_name_H-M   'P 1'
_cell_length_a   5.98568103
_cell_length_b   6.09623711
_cell_length_c   24.98649300
_cell_angle_alpha   90.00000000
_cell_angle_beta   90.00000000
_cell_angle_gamma   90.00000000
_symmetry_Int_Tables_number   1
_chemical_formula_structural   AgClO2
_chemical_formula_sum   'Ag4 Cl4 O8'
_cell_volume   911.76039840
_cell_formula_units_Z   4
loop_
 _symmetry_equiv_pos_site_id
 _symmetry_equiv_pos_as_xyz
  1  'x, y, z'
loop_
 _atom_site_type_symbol
 _atom_site_label
 _atom_site_symmetry_multiplicity
 _atom_site_fract_x
 _atom_site_fract_y
 _atom_site_fract_z
 _atom_site_occupancy
  Ag  Ag1  1  -0.000000  0.250000  0.472306  1
  Ag  Ag2  1  0.500000  0.250000  0.527694  1
  Ag  Ag3  1  -0.000000  0.750000  0.527694  1
  Ag  Ag4  1  0.500000  0.750000  0.472306  1
  Cl  Cl5  1  0.500000  0.750000  0.601052  1
  Cl  Cl6  1  0.500000  0.250000  0.398948  1
  Cl  Cl7  1  -0.000000  0.750000  0.398948  1
  Cl  Cl8  1  -0.000000  0.250000  0.601052  1
  O  O9  1  0.151102  0.399229  0.562845  1
  O  O10  1  0.651102  0.100771  0.437155  1
  O  O11  1  0.348898  0.399229  0.437155  1
  O  O12  1  0.848898  0.100771  0.562845  1
  O  O13  1  0.848898  0.600771  0.437155  1
  O  O14  1  0.151102  0.899229  0.437155  1
  O  O15  1  0.651102  0.600771  0.562845  1
  O  O16  1  0.348898  0.899229  0.562845  1
