# generated using pymatgen
data_Co(ClO4)2
_symmetry_space_group_name_H-M   'P 1'
_cell_length_a   4.78643084
_cell_length_b   4.78643045
_cell_length_c   26.24629829
_cell_angle_alpha   90.00000000
_cell_angle_beta   90.00000000
_cell_angle_gamma   59.99999729
_symmetry_Int_Tables_number   1
_chemical_formula_structural   Co(ClO4)2
_chemical_formula_sum   'Co1 Cl2 O8'
_cell_volume   520.74153740
_cell_formula_units_Z   1
loop_
 _symmetry_equiv_pos_site_id
 _symmetry_equiv_pos_as_xyz
  1  'x, y, z'
loop_
 _atom_site_type_symbol
 _atom_site_label
 _atom_site_symmetry_multiplicity
 _atom_site_fract_x
 _atom_site_fract_y
 _atom_site_fract_z
 _atom_site_occupancy
  Co  Co1  1  0.666667  0.666667  0.500000  1
  Cl  Cl2  1  0.333333  0.333333  0.433085  1
  Cl  Cl3  1  0.000000  -0.000000  0.566915  1
  O  O4  1  0.333333  0.333333  0.379323  1
  O  O5  1  0.000000  -0.000000  0.620677  1
  O  O6  1  0.039792  0.616840  0.452856  1
  O  O7  1  0.716493  0.989965  0.547144  1
  O  O8  1  0.989965  0.293541  0.547144  1
  O  O9  1  0.293541  0.716493  0.547144  1
  O  O10  1  0.616840  0.343368  0.452856  1
  O  O11  1  0.343368  0.039792  0.452856  1
