# generated using pymatgen
data_VOF
_symmetry_space_group_name_H-M   'P 1'
_cell_length_a   3.31457126
_cell_length_b   3.31457119
_cell_length_c   25.44278999
_cell_angle_alpha   90.00000000
_cell_angle_beta   90.00000000
_cell_angle_gamma   59.99999049
_symmetry_Int_Tables_number   1
_chemical_formula_structural   VOF
_chemical_formula_sum   'V2 O2 F2'
_cell_volume   242.07505271
_cell_formula_units_Z   2
loop_
 _symmetry_equiv_pos_site_id
 _symmetry_equiv_pos_as_xyz
  1  'x, y, z'
loop_
 _atom_site_type_symbol
 _atom_site_label
 _atom_site_symmetry_multiplicity
 _atom_site_fract_x
 _atom_site_fract_y
 _atom_site_fract_z
 _atom_site_occupancy
  V  V1  1  0.666667  0.666667  0.447034  1
  V  V2  1  0.333333  0.333333  0.552966  1
  O  O3  1  0.666667  0.666667  0.529674  1
  O  O4  1  0.333333  0.333333  0.470326  1
  F  F5  1  0.000000  0.000000  0.595810  1
  F  F6  1  0.000000  0.000000  0.404190  1
