# generated using pymatgen
data_Tl3BiI6
_symmetry_space_group_name_H-M   'P 1'
_cell_length_a   8.98616023
_cell_length_b   13.67938918
_cell_length_c   31.54512800
_cell_angle_alpha   90.00000000
_cell_angle_beta   90.00000000
_cell_angle_gamma   90.00000000
_symmetry_Int_Tables_number   1
_chemical_formula_structural   Tl3BiI6
_chemical_formula_sum   'Tl12 Bi4 I24'
_cell_volume   3877.69063279
_cell_formula_units_Z   4
loop_
 _symmetry_equiv_pos_site_id
 _symmetry_equiv_pos_as_xyz
  1  'x, y, z'
loop_
 _atom_site_type_symbol
 _atom_site_label
 _atom_site_symmetry_multiplicity
 _atom_site_fract_x
 _atom_site_fract_y
 _atom_site_fract_z
 _atom_site_occupancy
  Tl  Tl1  1  0.149038  0.300061  0.478820  1
  Tl  Tl2  1  0.128294  0.036243  0.368257  1
  Tl  Tl3  1  0.850962  0.699939  0.521180  1
  Tl  Tl4  1  0.863939  0.434773  0.408037  1
  Tl  Tl5  1  0.363939  0.065227  0.591963  1
  Tl  Tl6  1  0.649038  0.199939  0.521180  1
  Tl  Tl7  1  0.628294  0.463757  0.631743  1
  Tl  Tl8  1  0.636061  0.934773  0.408037  1
  Tl  Tl9  1  0.371706  0.536243  0.368257  1
  Tl  Tl10  1  0.350962  0.800061  0.478820  1
  Tl  Tl11  1  0.871706  0.963757  0.631743  1
  Tl  Tl12  1  0.136061  0.565227  0.591963  1
  Bi  Bi13  1  0.996210  0.732401  0.384626  1
  Bi  Bi14  1  0.496210  0.767599  0.615374  1
  Bi  Bi15  1  0.003790  0.267599  0.615374  1
  Bi  Bi16  1  0.503790  0.232401  0.384626  1
  I  I17  1  0.856551  0.410501  0.542959  1
  I  I18  1  0.852829  0.873317  0.324315  1
  I  I19  1  0.489476  0.065622  0.322263  1
  I  I20  1  0.183142  0.834533  0.577946  1
  I  I21  1  0.147171  0.126683  0.675685  1
  I  I22  1  0.010524  0.565622  0.322263  1
  I  I23  1  0.816858  0.165467  0.422054  1
  I  I24  1  0.643449  0.910501  0.542959  1
  I  I25  1  0.994046  0.893379  0.456684  1
  I  I26  1  0.316858  0.334533  0.577946  1
  I  I27  1  0.352829  0.626683  0.675685  1
  I  I28  1  0.505954  0.393379  0.456684  1
  I  I29  1  0.811838  0.698074  0.638199  1
  I  I30  1  0.356551  0.089499  0.457041  1
  I  I31  1  0.143449  0.589499  0.457041  1
  I  I32  1  0.510524  0.934378  0.677737  1
  I  I33  1  0.494046  0.606621  0.543316  1
  I  I34  1  0.647171  0.373317  0.324315  1
  I  I35  1  0.989476  0.434378  0.677737  1
  I  I36  1  0.005954  0.106621  0.543316  1
  I  I37  1  0.688162  0.198074  0.638199  1
  I  I38  1  0.188162  0.301926  0.361801  1
  I  I39  1  0.311838  0.801926  0.361801  1
  I  I40  1  0.683142  0.665467  0.422054  1
