# generated using pymatgen
data_B3C10N3
_symmetry_space_group_name_H-M   'P 1'
_cell_length_a   5.01174699
_cell_length_b   8.66047697
_cell_length_c   20.00000000
_cell_angle_alpha   90.00000000
_cell_angle_beta   90.00000000
_cell_angle_gamma   90.00000000
_symmetry_Int_Tables_number   1
_chemical_formula_structural   B3C10N3
_chemical_formula_sum   'B3 C10 N3'
_cell_volume   868.08238773
_cell_formula_units_Z   1
loop_
 _symmetry_equiv_pos_site_id
 _symmetry_equiv_pos_as_xyz
  1  'x, y, z'
loop_
 _atom_site_type_symbol
 _atom_site_label
 _atom_site_symmetry_multiplicity
 _atom_site_fract_x
 _atom_site_fract_y
 _atom_site_fract_z
 _atom_site_occupancy
  B  B1  1  0.500000  0.656714  0.500000  1
  B  B2  1  -0.000000  0.492964  0.500000  1
  B  B3  1  0.500000  0.995652  0.500000  1
  C  C4  1  -0.000000  0.996545  0.500000  1
  C  C5  1  0.241123  0.747442  0.500000  1
  C  C6  1  -0.000000  0.666621  0.500000  1
  C  C7  1  0.000000  0.163209  0.500000  1
  C  C8  1  0.745459  0.405103  0.500000  1
  C  C9  1  0.254541  0.405103  0.500000  1
  C  C10  1  0.241151  0.911073  0.500000  1
  C  C11  1  0.500000  0.163655  0.500000  1
  C  C12  1  0.758877  0.747442  0.500000  1
  C  C13  1  0.758849  0.911073  0.500000  1
  N  N14  1  0.500000  0.481760  0.500000  1
  N  N15  1  0.251078  0.245973  0.500000  1
  N  N16  1  0.748922  0.245973  0.500000  1
