# generated using pymatgen
data_NaBH8O7
_symmetry_space_group_name_H-M   'P 1'
_cell_length_a   6.74753342
_cell_length_b   7.92864887
_cell_length_c   24.68949660
_cell_angle_alpha   88.92905859
_cell_angle_beta   88.98082216
_cell_angle_gamma   101.38995104
_symmetry_Int_Tables_number   1
_chemical_formula_structural   NaBH8O7
_chemical_formula_sum   'Na2 B2 H16 O14'
_cell_volume   1294.30872846
_cell_formula_units_Z   2
loop_
 _symmetry_equiv_pos_site_id
 _symmetry_equiv_pos_as_xyz
  1  'x, y, z'
loop_
 _atom_site_type_symbol
 _atom_site_label
 _atom_site_symmetry_multiplicity
 _atom_site_fract_x
 _atom_site_fract_y
 _atom_site_fract_z
 _atom_site_occupancy
  Na  Na1  1  0.000000  0.000000  0.500000  1
  Na  Na2  1  0.500000  0.000000  0.500000  1
  B  B3  1  0.858983  0.571098  0.467893  1
  B  B4  1  0.141017  0.428902  0.532107  1
  H  H5  1  0.687345  0.861218  0.590745  1
  H  H6  1  0.312655  0.138782  0.409255  1
  H  H7  1  0.757771  0.729476  0.549363  1
  H  H8  1  0.242229  0.270524  0.450637  1
  H  H9  1  0.258394  0.925630  0.594479  1
  H  H10  1  0.741606  0.074370  0.405521  1
  H  H11  1  0.157043  0.765100  0.558718  1
  H  H12  1  0.842957  0.234900  0.441282  1
  H  H13  1  0.276333  0.725718  0.442424  1
  H  H14  1  0.723667  0.274282  0.557576  1
  H  H15  1  0.498878  0.694355  0.437295  1
  H  H16  1  0.501122  0.305645  0.562705  1
  H  H17  1  0.966624  0.755801  0.411968  1
  H  H18  1  0.033376  0.244199  0.588032  1
  H  H19  1  0.574690  0.426253  0.458915  1
  H  H20  1  0.425310  0.573747  0.541085  1
  O  O21  1  0.706181  0.840145  0.552491  1
  O  O22  1  0.293819  0.159855  0.447509  1
  O  O23  1  0.219687  0.892020  0.557917  1
  O  O24  1  0.780313  0.107980  0.442083  1
  O  O25  1  0.417037  0.785306  0.435788  1
  O  O26  1  0.582963  0.214694  0.564212  1
  O  O27  1  0.972102  0.741059  0.451109  1
  O  O28  1  0.027898  0.258941  0.548891  1
  O  O29  1  0.655255  0.538461  0.447925  1
  O  O30  1  0.344745  0.461539  0.552075  1
  O  O31  1  0.955661  0.430385  0.446911  1
  O  O32  1  0.044339  0.569615  0.553089  1
  O  O33  1  0.842008  0.559554  0.528520  1
  O  O34  1  0.157992  0.440446  0.471480  1
