# generated using pymatgen
data_Nd2Te5
_symmetry_space_group_name_H-M   'P 1'
_cell_length_a   4.44093782
_cell_length_b   4.44248290
_cell_length_c   38.68044600
_cell_angle_alpha   90.00000000
_cell_angle_beta   90.00000000
_cell_angle_gamma   90.00000000
_symmetry_Int_Tables_number   1
_chemical_formula_structural   Nd2Te5
_chemical_formula_sum   'Nd4 Te10'
_cell_volume   763.11840882
_cell_formula_units_Z   2
loop_
 _symmetry_equiv_pos_site_id
 _symmetry_equiv_pos_as_xyz
  1  'x, y, z'
loop_
 _atom_site_type_symbol
 _atom_site_label
 _atom_site_symmetry_multiplicity
 _atom_site_fract_x
 _atom_site_fract_y
 _atom_site_fract_z
 _atom_site_occupancy
  Nd  Nd1  1  0.500000  0.000000  0.433608  1
  Nd  Nd2  1  0.000000  0.500000  0.566392  1
  Nd  Nd3  1  0.500000  -0.000000  0.675973  1
  Nd  Nd4  1  0.000000  0.500000  0.324027  1
  Te  Te5  1  0.500000  0.000000  0.349158  1
  Te  Te6  1  -0.000000  0.500000  0.650842  1
  Te  Te7  1  0.500000  -0.000000  0.589446  1
  Te  Te8  1  -0.000000  0.500000  0.410554  1
  Te  Te9  1  0.500000  0.500000  0.741432  1
  Te  Te10  1  0.000000  0.000000  0.258568  1
  Te  Te11  1  0.500000  0.500000  0.258571  1
  Te  Te12  1  0.000000  0.000000  0.741429  1
  Te  Te13  1  0.500000  0.500000  0.499984  1
  Te  Te14  1  -0.000000  -0.000000  0.500016  1
