# generated using pymatgen
data_RbMnP
_symmetry_space_group_name_H-M   'P 1'
_cell_length_a   3.80062211
_cell_length_b   3.80062211
_cell_length_c   26.63297000
_cell_angle_alpha   90.00000000
_cell_angle_beta   90.00000000
_cell_angle_gamma   90.00000000
_symmetry_Int_Tables_number   1
_chemical_formula_structural   RbMnP
_chemical_formula_sum   'Rb2 Mn2 P2'
_cell_volume   384.70601875
_cell_formula_units_Z   2
loop_
 _symmetry_equiv_pos_site_id
 _symmetry_equiv_pos_as_xyz
  1  'x, y, z'
loop_
 _atom_site_type_symbol
 _atom_site_label
 _atom_site_symmetry_multiplicity
 _atom_site_fract_x
 _atom_site_fract_y
 _atom_site_fract_z
 _atom_site_occupancy
  Rb  Rb1  1  0.500000  -0.000000  0.376536  1
  Rb  Rb2  1  0.000000  0.500000  0.623464  1
  Mn  Mn3  1  0.500000  0.500000  0.500000  1
  Mn  Mn4  1  -0.000000  -0.000000  0.500000  1
  P  P5  1  0.500000  0.000000  0.548339  1
  P  P6  1  -0.000000  0.500000  0.451661  1
