# generated using pymatgen
data_MnF3
_symmetry_space_group_name_H-M   'P 1'
_cell_length_a   5.19763186
_cell_length_b   5.19763173
_cell_length_c   21.91529653
_cell_angle_alpha   90.02311943
_cell_angle_beta   90.02311943
_cell_angle_gamma   115.91972236
_symmetry_Int_Tables_number   1
_chemical_formula_structural   MnF3
_chemical_formula_sum   'Mn2 F6'
_cell_volume   532.49396339
_cell_formula_units_Z   2
loop_
 _symmetry_equiv_pos_site_id
 _symmetry_equiv_pos_as_xyz
  1  'x, y, z'
loop_
 _atom_site_type_symbol
 _atom_site_label
 _atom_site_symmetry_multiplicity
 _atom_site_fract_x
 _atom_site_fract_y
 _atom_site_fract_z
 _atom_site_occupancy
  Mn  Mn1  1  0.305618  0.644748  0.500000  1
  Mn  Mn2  1  0.644748  0.305618  0.500000  1
  F  F3  1  0.321280  0.949641  0.547261  1
  F  F4  1  0.949641  0.321280  0.547261  1
  F  F5  1  0.594305  0.594305  0.547673  1
  F  F6  1  0.356061  0.356061  0.452327  1
  F  F7  1  0.000726  0.629087  0.452739  1
  F  F8  1  0.629087  0.000726  0.452739  1
