# generated using pymatgen
data_ZnS
_symmetry_space_group_name_H-M   'P 1'
_cell_length_a   3.81174040
_cell_length_b   3.81174027
_cell_length_c   76.58569500
_cell_angle_alpha   90.00000000
_cell_angle_beta   90.00000000
_cell_angle_gamma   120.00000112
_symmetry_Int_Tables_number   1
_chemical_formula_structural   ZnS
_chemical_formula_sum   'Zn12 S12'
_cell_volume   963.66236941
_cell_formula_units_Z   12
loop_
 _symmetry_equiv_pos_site_id
 _symmetry_equiv_pos_as_xyz
  1  'x, y, z'
loop_
 _atom_site_type_symbol
 _atom_site_label
 _atom_site_symmetry_multiplicity
 _atom_site_fract_x
 _atom_site_fract_y
 _atom_site_fract_z
 _atom_site_occupancy
  Zn  Zn1  1  -0.000000  0.000000  0.308220  1
  Zn  Zn2  1  -0.000000  -0.000000  0.556847  1
  Zn  Zn3  1  0.666667  0.333333  0.598164  1
  Zn  Zn4  1  0.333333  0.666667  0.282715  1
  Zn  Zn5  1  0.666667  0.333333  0.351305  1
  Zn  Zn6  1  0.333333  0.666667  0.639591  1
  Zn  Zn7  1  0.333333  0.666667  0.392309  1
  Zn  Zn8  1  -0.000000  0.000000  0.433320  1
  Zn  Zn9  1  0.333333  0.666667  0.515628  1
  Zn  Zn10  1  0.666667  0.333333  0.474480  1
  Zn  Zn11  1  -0.000000  -0.000000  0.681135  1
  Zn  Zn12  1  0.666667  0.333333  0.723000  1
  S  S13  1  0.333333  0.666667  0.484861  1
  S  S14  1  0.333333  0.666667  0.608673  1
  S  S15  1  -0.000000  -0.000000  0.402620  1
  S  S16  1  -0.000000  -0.000000  0.732539  1
  S  S17  1  0.333333  0.666667  0.361618  1
  S  S18  1  0.333333  0.666667  0.253989  1
  S  S19  1  -0.000000  -0.000000  0.650060  1
  S  S20  1  0.666667  0.333333  0.443702  1
  S  S21  1  -0.000000  0.000000  0.526068  1
  S  S22  1  0.666667  0.333333  0.320581  1
  S  S23  1  0.666667  0.333333  0.567334  1
  S  S24  1  0.666667  0.333333  0.691241  1
