# generated using pymatgen
data_TePb
_symmetry_space_group_name_H-M   'P 1'
_cell_length_a   4.62345416
_cell_length_b   4.62882170
_cell_length_c   23.35252800
_cell_angle_alpha   90.00000000
_cell_angle_beta   90.00000000
_cell_angle_gamma   90.00000000
_symmetry_Int_Tables_number   1
_chemical_formula_structural   TePb
_chemical_formula_sum   'Te2 Pb2'
_cell_volume   499.77083655
_cell_formula_units_Z   2
loop_
 _symmetry_equiv_pos_site_id
 _symmetry_equiv_pos_as_xyz
  1  'x, y, z'
loop_
 _atom_site_type_symbol
 _atom_site_label
 _atom_site_symmetry_multiplicity
 _atom_site_fract_x
 _atom_site_fract_y
 _atom_site_fract_z
 _atom_site_occupancy
  Te  Te1  1  0.558699  0.000000  0.428316  1
  Te  Te2  1  0.058699  0.500000  0.571684  1
  Pb  Pb3  1  0.565882  -0.000000  0.558321  1
  Pb  Pb4  1  0.065882  0.500000  0.441679  1
