# generated using pymatgen
data_NaB(HO)4
_symmetry_space_group_name_H-M   'P 1'
_cell_length_a   5.83755354
_cell_length_b   6.10573146
_cell_length_c   25.17929500
_cell_angle_alpha   90.00000000
_cell_angle_beta   90.00000000
_cell_angle_gamma   112.12854490
_symmetry_Int_Tables_number   1
_chemical_formula_structural   NaB(HO)4
_chemical_formula_sum   'Na2 B2 H8 O8'
_cell_volume   831.34840070
_cell_formula_units_Z   2
loop_
 _symmetry_equiv_pos_site_id
 _symmetry_equiv_pos_as_xyz
  1  'x, y, z'
loop_
 _atom_site_type_symbol
 _atom_site_label
 _atom_site_symmetry_multiplicity
 _atom_site_fract_x
 _atom_site_fract_y
 _atom_site_fract_z
 _atom_site_occupancy
  Na  Na1  1  0.260662  0.250208  0.494339  1
  Na  Na2  1  0.739338  0.749792  0.505661  1
  B  B3  1  0.277123  0.726456  0.461105  1
  B  B4  1  0.722877  0.273544  0.538895  1
  H  H5  1  0.153772  0.619544  0.538354  1
  H  H6  1  0.846228  0.380456  0.461646  1
  H  H7  1  0.057757  0.868766  0.421696  1
  H  H8  1  0.942243  0.131234  0.578304  1
  H  H9  1  0.577805  0.017812  0.444852  1
  H  H10  1  0.422195  0.982188  0.555148  1
  H  H11  1  0.178869  0.499281  0.396668  1
  H  H12  1  0.821131  0.500719  0.603332  1
  O  O13  1  0.311071  0.681373  0.517797  1
  O  O14  1  0.688929  0.318627  0.482203  1
  O  O15  1  0.113828  0.865317  0.458052  1
  O  O16  1  0.886172  0.134683  0.541948  1
  O  O17  1  0.516906  0.847735  0.436223  1
  O  O18  1  0.483094  0.152265  0.563777  1
  O  O19  1  0.152522  0.489633  0.434839  1
  O  O20  1  0.847478  0.510367  0.565161  1
