# generated using pymatgen
data_Nb2Se3
_symmetry_space_group_name_H-M   'P 1'
_cell_length_a   3.42816745
_cell_length_b   9.92020541
_cell_length_c   23.76786400
_cell_angle_alpha   90.00000000
_cell_angle_beta   90.00000000
_cell_angle_gamma   90.00000000
_symmetry_Int_Tables_number   1
_chemical_formula_structural   Nb2Se3
_chemical_formula_sum   'Nb4 Se6'
_cell_volume   808.30049664
_cell_formula_units_Z   2
loop_
 _symmetry_equiv_pos_site_id
 _symmetry_equiv_pos_as_xyz
  1  'x, y, z'
loop_
 _atom_site_type_symbol
 _atom_site_label
 _atom_site_symmetry_multiplicity
 _atom_site_fract_x
 _atom_site_fract_y
 _atom_site_fract_z
 _atom_site_occupancy
  Nb  Nb1  1  0.250000  0.873204  0.499490  1
  Nb  Nb2  1  0.750000  0.126796  0.500510  1
  Nb  Nb3  1  0.250000  0.560737  0.459561  1
  Nb  Nb4  1  0.750000  0.439263  0.540439  1
  Se  Se5  1  0.250000  0.059791  0.423359  1
  Se  Se6  1  0.750000  0.940209  0.576641  1
  Se  Se7  1  0.250000  0.250065  0.574076  1
  Se  Se8  1  0.750000  0.749935  0.425924  1
  Se  Se9  1  0.750000  0.369934  0.434565  1
  Se  Se10  1  0.250000  0.630066  0.565435  1
