# generated using pymatgen
data_Ba2Mn2TlO7
_symmetry_space_group_name_H-M   'P 1'
_cell_length_a   3.77032384
_cell_length_b   3.77032384
_cell_length_c   30.19600883
_cell_angle_alpha   90.00000000
_cell_angle_beta   90.00000000
_cell_angle_gamma   90.00000000
_symmetry_Int_Tables_number   1
_chemical_formula_structural   Ba2Mn2TlO7
_chemical_formula_sum   'Ba2 Mn2 Tl1 O7'
_cell_volume   429.24658828
_cell_formula_units_Z   1
loop_
 _symmetry_equiv_pos_site_id
 _symmetry_equiv_pos_as_xyz
  1  'x, y, z'
loop_
 _atom_site_type_symbol
 _atom_site_label
 _atom_site_symmetry_multiplicity
 _atom_site_fract_x
 _atom_site_fract_y
 _atom_site_fract_z
 _atom_site_occupancy
  Ba  Ba1  1  0.500000  0.500000  0.408409  1
  Ba  Ba2  1  0.500000  0.500000  0.591665  1
  Mn  Mn3  1  -0.000000  0.000000  0.329096  1
  Mn  Mn4  1  -0.000000  -0.000000  0.670915  1
  Tl  Tl5  1  0.000000  0.000000  0.500055  1
  O  O6  1  0.500000  0.500000  0.499972  1
  O  O7  1  0.500000  -0.000000  0.338304  1
  O  O8  1  -0.000000  0.500000  0.338304  1
  O  O9  1  0.500000  0.000000  0.661669  1
  O  O10  1  -0.000000  0.500000  0.661669  1
  O  O11  1  -0.000000  -0.000000  0.431024  1
  O  O12  1  -0.000000  0.000000  0.568917  1
