# generated using pymatgen
data_Ta2TiZn2O8
_symmetry_space_group_name_H-M   'P 1'
_cell_length_a   5.04046998
_cell_length_b   5.72268018
_cell_length_c   28.93463374
_cell_angle_alpha   90.03225699
_cell_angle_beta   88.36546467
_cell_angle_gamma   88.41312870
_symmetry_Int_Tables_number   1
_chemical_formula_structural   Ta2TiZn2O8
_chemical_formula_sum   'Ta4 Ti2 Zn4 O16'
_cell_volume   833.95911678
_cell_formula_units_Z   2
loop_
 _symmetry_equiv_pos_site_id
 _symmetry_equiv_pos_as_xyz
  1  'x, y, z'
loop_
 _atom_site_type_symbol
 _atom_site_label
 _atom_site_symmetry_multiplicity
 _atom_site_fract_x
 _atom_site_fract_y
 _atom_site_fract_z
 _atom_site_occupancy
  Ta  Ta1  1  0.255278  0.182397  0.415617  1
  Ta  Ta2  1  0.229646  0.168226  0.581424  1
  Ta  Ta3  1  0.746650  0.819735  0.584353  1
  Ta  Ta4  1  0.772225  0.833878  0.418539  1
  Ti  Ti5  1  0.256890  0.670817  0.498529  1
  Ti  Ti6  1  0.745065  0.331384  0.501434  1
  Zn  Zn7  1  0.263439  0.638212  0.664500  1
  Zn  Zn8  1  0.311878  0.627926  0.337362  1
  Zn  Zn9  1  0.737795  0.364011  0.335540  1
  Zn  Zn10  1  0.689423  0.375370  0.662812  1
  O  O11  1  0.923014  0.131488  0.457181  1
  O  O12  1  0.581133  0.118716  0.541161  1
  O  O13  1  0.078871  0.870768  0.542762  1
  O  O14  1  0.420942  0.883432  0.458851  1
  O  O15  1  0.420802  0.383614  0.463590  1
  O  O16  1  0.068098  0.378723  0.535785  1
  O  O17  1  0.581220  0.618465  0.536377  1
  O  O18  1  0.933916  0.623440  0.464215  1
  O  O19  1  0.588143  0.108385  0.383814  1
  O  O20  1  0.903614  0.108300  0.616551  1
  O  O21  1  0.610610  0.616884  0.383625  1
  O  O22  1  0.902274  0.624980  0.628123  1
  O  O23  1  0.391392  0.384922  0.616460  1
  O  O24  1  0.099824  0.376900  0.371849  1
  O  O25  1  0.098328  0.893579  0.383403  1
  O  O26  1  0.413598  0.893289  0.616138  1
