# generated using pymatgen
data_TlSbO3
_symmetry_space_group_name_H-M   'P 1'
_cell_length_a   5.38513201
_cell_length_b   5.38513216
_cell_length_c   25.29592347
_cell_angle_alpha   90.00000000
_cell_angle_beta   90.00000000
_cell_angle_gamma   59.99999496
_symmetry_Int_Tables_number   1
_chemical_formula_structural   TlSbO3
_chemical_formula_sum   'Tl2 Sb2 O6'
_cell_volume   635.29270473
_cell_formula_units_Z   2
loop_
 _symmetry_equiv_pos_site_id
 _symmetry_equiv_pos_as_xyz
  1  'x, y, z'
loop_
 _atom_site_type_symbol
 _atom_site_label
 _atom_site_symmetry_multiplicity
 _atom_site_fract_x
 _atom_site_fract_y
 _atom_site_fract_z
 _atom_site_occupancy
  Tl  Tl1  1  -0.000000  0.000000  0.395335  1
  Tl  Tl2  1  -0.000000  0.000000  0.604665  1
  Sb  Sb3  1  0.333333  0.333333  0.499998  1
  Sb  Sb4  1  0.666667  0.666667  0.500002  1
  O  O5  1  -0.000016  0.381157  0.544613  1
  O  O6  1  0.618858  -0.000016  0.544613  1
  O  O7  1  0.381157  0.618858  0.544613  1
  O  O8  1  0.000016  0.618843  0.455387  1
  O  O9  1  0.618843  0.381142  0.455387  1
  O  O10  1  0.381142  0.000016  0.455387  1
