# generated using pymatgen
data_Bi2PdO4
_symmetry_space_group_name_H-M   'P 1'
_cell_length_a   8.16675585
_cell_length_b   8.16675585
_cell_length_c   22.09732000
_cell_angle_alpha   90.00000000
_cell_angle_beta   90.00000000
_cell_angle_gamma   90.00000000
_symmetry_Int_Tables_number   1
_chemical_formula_structural   Bi2PdO4
_chemical_formula_sum   'Bi4 Pd2 O8'
_cell_volume   1473.80066959
_cell_formula_units_Z   2
loop_
 _symmetry_equiv_pos_site_id
 _symmetry_equiv_pos_as_xyz
  1  'x, y, z'
loop_
 _atom_site_type_symbol
 _atom_site_label
 _atom_site_symmetry_multiplicity
 _atom_site_fract_x
 _atom_site_fract_y
 _atom_site_fract_z
 _atom_site_occupancy
  Bi  Bi1  1  0.674522  0.325478  0.500000  1
  Bi  Bi2  1  0.825478  0.825478  0.500000  1
  Bi  Bi3  1  0.174522  0.174522  0.500000  1
  Bi  Bi4  1  0.325478  0.674522  0.500000  1
  Pd  Pd5  1  0.000000  0.500000  0.547984  1
  Pd  Pd6  1  0.500000  0.000000  0.452016  1
  O  O7  1  0.773722  0.597980  0.543469  1
  O  O8  1  0.226278  0.402020  0.543469  1
  O  O9  1  0.902020  0.273722  0.543469  1
  O  O10  1  0.097980  0.726278  0.543469  1
  O  O11  1  0.597980  0.773722  0.456531  1
  O  O12  1  0.273722  0.902020  0.456531  1
  O  O13  1  0.726278  0.097980  0.456531  1
  O  O14  1  0.402020  0.226278  0.456531  1
