# generated using pymatgen
data_SnPS3
_symmetry_space_group_name_H-M   'P 1'
_cell_length_a   6.71105589
_cell_length_b   6.71105562
_cell_length_c   23.46601300
_cell_angle_alpha   90.00000000
_cell_angle_beta   90.00000000
_cell_angle_gamma   60.00000354
_symmetry_Int_Tables_number   1
_chemical_formula_structural   SnPS3
_chemical_formula_sum   'Sn2 P2 S6'
_cell_volume   915.27510075
_cell_formula_units_Z   2
loop_
 _symmetry_equiv_pos_site_id
 _symmetry_equiv_pos_as_xyz
  1  'x, y, z'
loop_
 _atom_site_type_symbol
 _atom_site_label
 _atom_site_symmetry_multiplicity
 _atom_site_fract_x
 _atom_site_fract_y
 _atom_site_fract_z
 _atom_site_occupancy
  Sn  Sn1  1  0.666667  0.666667  0.498767  1
  Sn  Sn2  1  0.333333  0.333333  0.501233  1
  P  P3  1  0.000000  0.000000  0.548158  1
  P  P4  1  0.000000  -0.000000  0.451842  1
  S  S5  1  0.713469  0.990328  0.573977  1
  S  S6  1  0.990328  0.296203  0.573977  1
  S  S7  1  0.296203  0.713469  0.573977  1
  S  S8  1  0.286531  0.009672  0.426023  1
  S  S9  1  0.009672  0.703797  0.426023  1
  S  S10  1  0.703797  0.286531  0.426023  1
