# generated using pymatgen
data_BaUI6
_symmetry_space_group_name_H-M   'P 1'
_cell_length_a   8.05225899
_cell_length_b   8.16767886
_cell_length_c   23.70649200
_cell_angle_alpha   90.00000000
_cell_angle_beta   90.00000000
_cell_angle_gamma   59.93848150
_symmetry_Int_Tables_number   1
_chemical_formula_structural   BaUI6
_chemical_formula_sum   'Ba1 U1 I6'
_cell_volume   1349.41259851
_cell_formula_units_Z   1
loop_
 _symmetry_equiv_pos_site_id
 _symmetry_equiv_pos_as_xyz
  1  'x, y, z'
loop_
 _atom_site_type_symbol
 _atom_site_label
 _atom_site_symmetry_multiplicity
 _atom_site_fract_x
 _atom_site_fract_y
 _atom_site_fract_z
 _atom_site_occupancy
  Ba  Ba1  1  0.830547  0.335366  0.502393  1
  U  U2  1  0.158737  0.674026  0.499383  1
  I  I3  1  0.447583  0.366253  0.576206  1
  I  I4  1  0.175711  0.958808  0.577605  1
  I  I5  1  0.842999  0.695655  0.573832  1
  I  I6  1  0.860085  0.970437  0.422265  1
  I  I7  1  0.459714  0.682580  0.425138  1
  I  I8  1  0.169186  0.371629  0.423178  1
