# generated using pymatgen
data_LiAsO3
_symmetry_space_group_name_H-M   'P 1'
_cell_length_a   4.91354013
_cell_length_b   4.91353948
_cell_length_c   22.55144980
_cell_angle_alpha   90.00000000
_cell_angle_beta   90.00000000
_cell_angle_gamma   60.00000247
_symmetry_Int_Tables_number   1
_chemical_formula_structural   LiAsO3
_chemical_formula_sum   'Li2 As2 O6'
_cell_volume   471.51342960
_cell_formula_units_Z   2
loop_
 _symmetry_equiv_pos_site_id
 _symmetry_equiv_pos_as_xyz
  1  'x, y, z'
loop_
 _atom_site_type_symbol
 _atom_site_label
 _atom_site_symmetry_multiplicity
 _atom_site_fract_x
 _atom_site_fract_y
 _atom_site_fract_z
 _atom_site_occupancy
  Li  Li1  1  0.666667  0.666667  0.572517  1
  Li  Li2  1  0.666667  0.666667  0.427483  1
  As  As3  1  0.333333  0.333333  0.499795  1
  As  As4  1  0.000000  -0.000000  0.500205  1
  O  O5  1  0.294190  0.667032  0.453894  1
  O  O6  1  0.667032  0.038779  0.453894  1
  O  O7  1  0.294555  0.039144  0.546106  1
  O  O8  1  0.039144  0.666302  0.546106  1
  O  O9  1  0.666302  0.294555  0.546106  1
  O  O10  1  0.038779  0.294190  0.453894  1
