# generated using pymatgen
data_HfBrN
_symmetry_space_group_name_H-M   'P 1'
_cell_length_a   3.57109980
_cell_length_b   4.10801185
_cell_length_c   25.91277800
_cell_angle_alpha   90.00000000
_cell_angle_beta   90.00000000
_cell_angle_gamma   90.00000000
_symmetry_Int_Tables_number   1
_chemical_formula_structural   HfBrN
_chemical_formula_sum   'Hf2 Br2 N2'
_cell_volume   380.14357046
_cell_formula_units_Z   2
loop_
 _symmetry_equiv_pos_site_id
 _symmetry_equiv_pos_as_xyz
  1  'x, y, z'
loop_
 _atom_site_type_symbol
 _atom_site_label
 _atom_site_symmetry_multiplicity
 _atom_site_fract_x
 _atom_site_fract_y
 _atom_site_fract_z
 _atom_site_occupancy
  Hf  Hf1  1  0.500000  0.500000  0.533594  1
  Hf  Hf2  1  -0.000000  0.000000  0.466406  1
  Br  Br3  1  0.500000  -0.000000  0.386112  1
  Br  Br4  1  0.000000  0.500000  0.613888  1
  N  N5  1  0.500000  -0.000000  0.511603  1
  N  N6  1  0.000000  0.500000  0.488397  1
