# generated using pymatgen
data_LuHCl
_symmetry_space_group_name_H-M   'P 1'
_cell_length_a   3.63308830
_cell_length_b   3.63308815
_cell_length_c   25.96638600
_cell_angle_alpha   90.00000000
_cell_angle_beta   90.00000000
_cell_angle_gamma   60.00000754
_symmetry_Int_Tables_number   1
_chemical_formula_structural   LuHCl
_chemical_formula_sum   'Lu2 H2 Cl2'
_cell_volume   296.82061587
_cell_formula_units_Z   2
loop_
 _symmetry_equiv_pos_site_id
 _symmetry_equiv_pos_as_xyz
  1  'x, y, z'
loop_
 _atom_site_type_symbol
 _atom_site_label
 _atom_site_symmetry_multiplicity
 _atom_site_fract_x
 _atom_site_fract_y
 _atom_site_fract_z
 _atom_site_occupancy
  Lu  Lu1  1  0.000000  -0.000000  0.449926  1
  Lu  Lu2  1  0.333333  0.333333  0.550074  1
  H  H3  1  -0.000000  -0.000000  0.531337  1
  H  H4  1  0.333333  0.333333  0.468663  1
  Cl  Cl5  1  0.666667  0.666667  0.614748  1
  Cl  Cl6  1  0.666667  0.666667  0.385252  1
