# generated using pymatgen
data_Hg3(BO3)2
_symmetry_space_group_name_H-M   'P 1'
_cell_length_a   8.90489423
_cell_length_b   8.90489419
_cell_length_c   20.70902400
_cell_angle_alpha   90.00000000
_cell_angle_beta   90.00000000
_cell_angle_gamma   59.99999990
_symmetry_Int_Tables_number   1
_chemical_formula_structural   Hg3(BO3)2
_chemical_formula_sum   'Hg3 B2 O6'
_cell_volume   1422.15781311
_cell_formula_units_Z   1
loop_
 _symmetry_equiv_pos_site_id
 _symmetry_equiv_pos_as_xyz
  1  'x, y, z'
loop_
 _atom_site_type_symbol
 _atom_site_label
 _atom_site_symmetry_multiplicity
 _atom_site_fract_x
 _atom_site_fract_y
 _atom_site_fract_z
 _atom_site_occupancy
  Hg  Hg1  1  0.366378  0.633622  0.500000  1
  Hg  Hg2  1  0.633622  0.000000  0.500000  1
  Hg  Hg3  1  1.000000  0.366378  0.500000  1
  B  B4  1  0.666667  0.666667  0.516739  1
  B  B5  1  0.333333  0.333333  0.483261  1
  O  O6  1  0.742643  0.488339  0.516412  1
  O  O7  1  0.769018  0.742643  0.516412  1
  O  O8  1  0.488339  0.769018  0.516412  1
  O  O9  1  0.257357  0.230982  0.483588  1
  O  O10  1  0.511661  0.257357  0.483588  1
  O  O11  1  0.230982  0.511661  0.483588  1
