# generated using pymatgen
data_V2MoO8
_symmetry_space_group_name_H-M   'P 1'
_cell_length_a   3.68914214
_cell_length_b   9.67105309
_cell_length_c   22.11459200
_cell_angle_alpha   90.00000000
_cell_angle_beta   90.00000000
_cell_angle_gamma   100.99545630
_symmetry_Int_Tables_number   1
_chemical_formula_structural   V2MoO8
_chemical_formula_sum   'V2 Mo1 O8'
_cell_volume   774.51771717
_cell_formula_units_Z   1
loop_
 _symmetry_equiv_pos_site_id
 _symmetry_equiv_pos_as_xyz
  1  'x, y, z'
loop_
 _atom_site_type_symbol
 _atom_site_label
 _atom_site_symmetry_multiplicity
 _atom_site_fract_x
 _atom_site_fract_y
 _atom_site_fract_z
 _atom_site_occupancy
  V  V1  1  0.686941  0.373881  0.508006  1
  V  V2  1  0.313059  0.626119  0.508006  1
  Mo  Mo3  1  0.500000  0.000000  0.513038  1
  O  O4  1  0.500000  0.000000  0.436253  1
  O  O5  1  0.790678  0.581357  0.526342  1
  O  O6  1  0.598373  0.196746  0.537483  1
  O  O7  1  0.320432  0.640862  0.435847  1
  O  O8  1  0.209322  0.418643  0.526342  1
  O  O9  1  0.679568  0.359138  0.435847  1
  O  O10  1  0.401627  0.803254  0.537483  1
  O  O11  1  0.000000  -0.000000  0.535353  1
