# generated using pymatgen
data_AuN2
_symmetry_space_group_name_H-M   'P 1'
_cell_length_a   2.88408026
_cell_length_b   5.10564113
_cell_length_c   20.81674700
_cell_angle_alpha   90.00000000
_cell_angle_beta   90.00000000
_cell_angle_gamma   90.00000000
_symmetry_Int_Tables_number   1
_chemical_formula_structural   AuN2
_chemical_formula_sum   'Au1 N2'
_cell_volume   306.52823989
_cell_formula_units_Z   1
loop_
 _symmetry_equiv_pos_site_id
 _symmetry_equiv_pos_as_xyz
  1  'x, y, z'
loop_
 _atom_site_type_symbol
 _atom_site_label
 _atom_site_symmetry_multiplicity
 _atom_site_fract_x
 _atom_site_fract_y
 _atom_site_fract_z
 _atom_site_occupancy
  Au  Au1  1  0.500000  -0.000000  0.500000  1
  N  N2  1  0.500000  0.425632  0.479252  1
  N  N3  1  0.500000  0.574368  0.520748  1
