# generated using pymatgen
data_CuH2(CO2)2
_symmetry_space_group_name_H-M   'P 1'
_cell_length_a   7.96688294
_cell_length_b   8.10632877
_cell_length_c   21.10791000
_cell_angle_alpha   90.00000000
_cell_angle_beta   90.00000000
_cell_angle_gamma   90.00000000
_symmetry_Int_Tables_number   1
_chemical_formula_structural   CuH2(CO2)2
_chemical_formula_sum   'Cu2 H4 C4 O8'
_cell_volume   1363.19468228
_cell_formula_units_Z   2
loop_
 _symmetry_equiv_pos_site_id
 _symmetry_equiv_pos_as_xyz
  1  'x, y, z'
loop_
 _atom_site_type_symbol
 _atom_site_label
 _atom_site_symmetry_multiplicity
 _atom_site_fract_x
 _atom_site_fract_y
 _atom_site_fract_z
 _atom_site_occupancy
  Cu  Cu1  1  0.500000  0.500000  0.500000  1
  Cu  Cu2  1  0.000000  -0.000000  0.500000  1
  H  H3  1  0.812421  0.313650  0.521354  1
  H  H4  1  0.312421  0.186350  0.478646  1
  H  H5  1  0.187579  0.686350  0.478646  1
  H  H6  1  0.687579  0.813650  0.521354  1
  C  C7  1  0.730188  0.233624  0.492516  1
  C  C8  1  0.230188  0.266376  0.507484  1
  C  C9  1  0.269812  0.766376  0.507484  1
  C  C10  1  0.769812  0.733624  0.492516  1
  O  O11  1  0.584500  0.283054  0.477310  1
  O  O12  1  0.084500  0.216946  0.522690  1
  O  O13  1  0.415500  0.716946  0.522690  1
  O  O14  1  0.915500  0.783054  0.477310  1
  O  O15  1  0.283875  0.407002  0.524601  1
  O  O16  1  0.783875  0.092998  0.475399  1
  O  O17  1  0.716125  0.592998  0.475399  1
  O  O18  1  0.216125  0.907002  0.524601  1
