# generated using pymatgen
data_Nb3Cl8
_symmetry_space_group_name_H-M   'P 1'
_cell_length_a   6.78542081
_cell_length_b   6.78542103
_cell_length_c   23.49516700
_cell_angle_alpha   90.00000000
_cell_angle_beta   90.00000000
_cell_angle_gamma   120.00000378
_symmetry_Int_Tables_number   1
_chemical_formula_structural   Nb3Cl8
_chemical_formula_sum   'Nb3 Cl8'
_cell_volume   936.83420286
_cell_formula_units_Z   1
loop_
 _symmetry_equiv_pos_site_id
 _symmetry_equiv_pos_as_xyz
  1  'x, y, z'
loop_
 _atom_site_type_symbol
 _atom_site_label
 _atom_site_symmetry_multiplicity
 _atom_site_fract_x
 _atom_site_fract_y
 _atom_site_fract_z
 _atom_site_occupancy
  Nb  Nb1  1  0.194491  0.388981  0.501536  1
  Nb  Nb2  1  0.194491  0.805509  0.501536  1
  Nb  Nb3  1  0.611019  0.805509  0.501536  1
  Cl  Cl4  1  0.333333  0.666667  0.580936  1
  Cl  Cl5  1  0.000000  0.000000  0.443684  1
  Cl  Cl6  1  0.831598  0.168403  0.559538  1
  Cl  Cl7  1  0.336806  0.168402  0.559538  1
  Cl  Cl8  1  0.831598  0.663194  0.559538  1
  Cl  Cl9  1  0.498617  0.501383  0.430720  1
  Cl  Cl10  1  0.002766  0.501383  0.430720  1
  Cl  Cl11  1  0.498617  0.997234  0.430720  1
