# generated using pymatgen
data_Sn4Pt
_symmetry_space_group_name_H-M   'P 1'
_cell_length_a   6.68421407
_cell_length_b   6.67477082
_cell_length_c   22.90397500
_cell_angle_alpha   90.00000000
_cell_angle_beta   90.00000000
_cell_angle_gamma   90.00000000
_symmetry_Int_Tables_number   1
_chemical_formula_structural   Sn4Pt
_chemical_formula_sum   'Sn8 Pt2'
_cell_volume   1021.87451896
_cell_formula_units_Z   2
loop_
 _symmetry_equiv_pos_site_id
 _symmetry_equiv_pos_as_xyz
  1  'x, y, z'
loop_
 _atom_site_type_symbol
 _atom_site_label
 _atom_site_symmetry_multiplicity
 _atom_site_fract_x
 _atom_site_fract_y
 _atom_site_fract_z
 _atom_site_occupancy
  Sn  Sn1  1  0.842043  0.841421  0.558425  1
  Sn  Sn2  1  0.842043  0.158579  0.441575  1
  Sn  Sn3  1  0.342043  0.341421  0.441575  1
  Sn  Sn4  1  0.342043  0.658580  0.558425  1
  Sn  Sn5  1  0.657957  0.341421  0.558425  1
  Sn  Sn6  1  0.657957  0.658580  0.441575  1
  Sn  Sn7  1  0.157957  0.158580  0.558425  1
  Sn  Sn8  1  0.157957  0.841421  0.441575  1
  Pt  Pt9  1  0.000000  0.500000  0.500000  1
  Pt  Pt10  1  0.500000  0.000000  0.500000  1
