# generated using pymatgen
data_Mg6BC
_symmetry_space_group_name_H-M   'P 1'
_cell_length_a   4.02339850
_cell_length_b   8.27112597
_cell_length_c   22.44400300
_cell_angle_alpha   90.00000000
_cell_angle_beta   90.00000000
_cell_angle_gamma   90.00000000
_symmetry_Int_Tables_number   1
_chemical_formula_structural   Mg6BC
_chemical_formula_sum   'Mg6 B1 C1'
_cell_volume   746.89233580
_cell_formula_units_Z   1
loop_
 _symmetry_equiv_pos_site_id
 _symmetry_equiv_pos_as_xyz
  1  'x, y, z'
loop_
 _atom_site_type_symbol
 _atom_site_label
 _atom_site_symmetry_multiplicity
 _atom_site_fract_x
 _atom_site_fract_y
 _atom_site_fract_z
 _atom_site_occupancy
  Mg  Mg1  1  -0.000000  0.749729  0.467728  1
  Mg  Mg2  1  0.000000  0.250272  0.467728  1
  Mg  Mg3  1  0.500000  0.165050  0.562768  1
  Mg  Mg4  1  0.500000  0.834950  0.562768  1
  Mg  Mg5  1  0.500000  -0.000000  0.445982  1
  Mg  Mg6  1  0.500000  0.500000  0.473821  1
  B  B7  1  -0.000000  -0.000000  0.527989  1
  C  C8  1  -0.000000  0.500000  0.491214  1
