# generated using pymatgen
data_AgBiO2
_symmetry_space_group_name_H-M   'P 1'
_cell_length_a   3.52016641
_cell_length_b   6.67943509
_cell_length_c   23.75702801
_cell_angle_alpha   89.78547976
_cell_angle_beta   90.00000000
_cell_angle_gamma   90.00000000
_symmetry_Int_Tables_number   1
_chemical_formula_structural   AgBiO2
_chemical_formula_sum   'Ag2 Bi2 O4'
_cell_volume   558.58850432
_cell_formula_units_Z   2
loop_
 _symmetry_equiv_pos_site_id
 _symmetry_equiv_pos_as_xyz
  1  'x, y, z'
loop_
 _atom_site_type_symbol
 _atom_site_label
 _atom_site_symmetry_multiplicity
 _atom_site_fract_x
 _atom_site_fract_y
 _atom_site_fract_z
 _atom_site_occupancy
  Ag  Ag1  1  0.250000  0.364228  0.547603  1
  Ag  Ag2  1  0.750000  0.254846  0.452397  1
  Bi  Bi3  1  0.750000  0.870841  0.566319  1
  Bi  Bi4  1  0.250000  0.748233  0.433681  1
  O  O5  1  0.250000  0.073757  0.578969  1
  O  O6  1  0.750000  0.545318  0.421031  1
  O  O7  1  0.750000  0.953887  0.477929  1
  O  O8  1  0.250000  0.665187  0.522071  1
