# generated using pymatgen
data_Sb2Te3
_symmetry_space_group_name_H-M   'P 1'
_cell_length_a   4.32458447
_cell_length_b   4.32458430
_cell_length_c   27.39573200
_cell_angle_alpha   90.00000000
_cell_angle_beta   90.00000000
_cell_angle_gamma   60.00000626
_symmetry_Int_Tables_number   1
_chemical_formula_structural   Sb2Te3
_chemical_formula_sum   'Sb2 Te3'
_cell_volume   443.71317041
_cell_formula_units_Z   1
loop_
 _symmetry_equiv_pos_site_id
 _symmetry_equiv_pos_as_xyz
  1  'x, y, z'
loop_
 _atom_site_type_symbol
 _atom_site_label
 _atom_site_symmetry_multiplicity
 _atom_site_fract_x
 _atom_site_fract_y
 _atom_site_fract_z
 _atom_site_occupancy
  Sb  Sb1  1  0.333333  0.333333  0.573022  1
  Sb  Sb2  1  -0.000000  -0.000000  0.426978  1
  Te  Te3  1  0.333333  0.333333  0.364432  1
  Te  Te4  1  0.000000  0.000000  0.635568  1
  Te  Te5  1  0.666667  0.666667  0.500000  1
