# generated using pymatgen
data_LiFePO4
_symmetry_space_group_name_H-M   'P 1'
_cell_length_a   6.02285161
_cell_length_b   8.24085458
_cell_length_c   22.50236100
_cell_angle_alpha   90.00000000
_cell_angle_beta   90.00000000
_cell_angle_gamma   90.00000000
_symmetry_Int_Tables_number   1
_chemical_formula_structural   LiFePO4
_chemical_formula_sum   'Li2 Fe2 P2 O8'
_cell_volume   1116.86968075
_cell_formula_units_Z   2
loop_
 _symmetry_equiv_pos_site_id
 _symmetry_equiv_pos_as_xyz
  1  'x, y, z'
loop_
 _atom_site_type_symbol
 _atom_site_label
 _atom_site_symmetry_multiplicity
 _atom_site_fract_x
 _atom_site_fract_y
 _atom_site_fract_z
 _atom_site_occupancy
  Li  Li1  1  -0.000000  -0.000000  0.500000  1
  Li  Li2  1  0.500000  -0.000000  0.500000  1
  Fe  Fe3  1  0.750000  0.648625  0.500000  1
  Fe  Fe4  1  0.250000  0.351375  0.500000  1
  P  P5  1  0.250000  0.665762  0.500000  1
  P  P6  1  0.750000  0.334238  0.500000  1
  O  O7  1  0.750000  0.444440  0.554666  1
  O  O8  1  0.250000  0.555560  0.554666  1
  O  O9  1  0.461823  0.781904  0.500000  1
  O  O10  1  0.038177  0.781904  0.500000  1
  O  O11  1  0.961823  0.218096  0.500000  1
  O  O12  1  0.538177  0.218096  0.500000  1
  O  O13  1  0.750000  0.444440  0.445334  1
  O  O14  1  0.250000  0.555560  0.445334  1
