# generated using pymatgen
data_Sn(BiTe2)2
_symmetry_space_group_name_H-M   'P 1'
_cell_length_a   4.44902872
_cell_length_b   4.44902878
_cell_length_c   31.30794000
_cell_angle_alpha   90.00000000
_cell_angle_beta   90.00000000
_cell_angle_gamma   59.99999305
_symmetry_Int_Tables_number   1
_chemical_formula_structural   Sn(BiTe2)2
_chemical_formula_sum   'Sn1 Bi2 Te4'
_cell_volume   536.68013334
_cell_formula_units_Z   1
loop_
 _symmetry_equiv_pos_site_id
 _symmetry_equiv_pos_as_xyz
  1  'x, y, z'
loop_
 _atom_site_type_symbol
 _atom_site_label
 _atom_site_symmetry_multiplicity
 _atom_site_fract_x
 _atom_site_fract_y
 _atom_site_fract_z
 _atom_site_occupancy
  Sn  Sn1  1  0.666667  0.666667  0.500000  1
  Bi  Bi2  1  -0.000000  -0.000000  0.373866  1
  Bi  Bi3  1  0.333333  0.333333  0.626134  1
  Te  Te4  1  0.666667  0.666667  0.319189  1
  Te  Te5  1  -0.000000  -0.000000  0.560252  1
  Te  Te6  1  0.333333  0.333333  0.439748  1
  Te  Te7  1  0.666667  0.666667  0.680811  1
