# generated using pymatgen
data_LiVF3
_symmetry_space_group_name_H-M   'P 1'
_cell_length_a   3.21303051
_cell_length_b   5.94017392
_cell_length_c   23.30397059
_cell_angle_alpha   90.00000000
_cell_angle_beta   89.79424040
_cell_angle_gamma   90.00000000
_symmetry_Int_Tables_number   1
_chemical_formula_structural   LiVF3
_chemical_formula_sum   'Li2 V2 F6'
_cell_volume   444.77578293
_cell_formula_units_Z   2
loop_
 _symmetry_equiv_pos_site_id
 _symmetry_equiv_pos_as_xyz
  1  'x, y, z'
loop_
 _atom_site_type_symbol
 _atom_site_label
 _atom_site_symmetry_multiplicity
 _atom_site_fract_x
 _atom_site_fract_y
 _atom_site_fract_z
 _atom_site_occupancy
  Li  Li1  1  0.999711  0.750000  0.548711  1
  Li  Li2  1  0.994339  0.250000  0.451289  1
  V  V3  1  0.497612  0.750000  0.419535  1
  V  V4  1  0.496437  0.250000  0.580465  1
  F  F5  1  0.996103  0.024825  0.590386  1
  F  F6  1  0.996103  0.475175  0.590386  1
  F  F7  1  0.500816  0.750000  0.507150  1
  F  F8  1  0.493234  0.250000  0.492850  1
  F  F9  1  0.997947  0.524825  0.409614  1
  F  F10  1  0.997947  0.975175  0.409614  1
