# generated using pymatgen
data_AuClO2
_symmetry_space_group_name_H-M   'P 1'
_cell_length_a   4.03054376
_cell_length_b   7.29785697
_cell_length_c   22.80390700
_cell_angle_alpha   90.00000000
_cell_angle_beta   90.00000000
_cell_angle_gamma   90.00000000
_symmetry_Int_Tables_number   1
_chemical_formula_structural   AuClO2
_chemical_formula_sum   'Au2 Cl2 O4'
_cell_volume   670.76168847
_cell_formula_units_Z   2
loop_
 _symmetry_equiv_pos_site_id
 _symmetry_equiv_pos_as_xyz
  1  'x, y, z'
loop_
 _atom_site_type_symbol
 _atom_site_label
 _atom_site_symmetry_multiplicity
 _atom_site_fract_x
 _atom_site_fract_y
 _atom_site_fract_z
 _atom_site_occupancy
  Au  Au1  1  0.500000  0.733095  0.500000  1
  Au  Au2  1  -0.000000  0.266905  0.500000  1
  Cl  Cl3  1  0.750000  0.500000  0.561691  1
  Cl  Cl4  1  0.250000  0.500000  0.438309  1
  O  O5  1  0.287716  0.088650  0.450656  1
  O  O6  1  0.787716  0.911350  0.549344  1
  O  O7  1  0.712284  0.088650  0.549344  1
  O  O8  1  0.212284  0.911350  0.450656  1
