# generated using pymatgen
data_Y2GeI2
_symmetry_space_group_name_H-M   'P 1'
_cell_length_a   4.22339870
_cell_length_b   4.22339885
_cell_length_c   27.16695700
_cell_angle_alpha   90.00000000
_cell_angle_beta   90.00000000
_cell_angle_gamma   60.00000119
_symmetry_Int_Tables_number   1
_chemical_formula_structural   Y2GeI2
_chemical_formula_sum   'Y2 Ge1 I2'
_cell_volume   419.65829487
_cell_formula_units_Z   1
loop_
 _symmetry_equiv_pos_site_id
 _symmetry_equiv_pos_as_xyz
  1  'x, y, z'
loop_
 _atom_site_type_symbol
 _atom_site_label
 _atom_site_symmetry_multiplicity
 _atom_site_fract_x
 _atom_site_fract_y
 _atom_site_fract_z
 _atom_site_occupancy
  Y  Y1  1  0.333333  0.333333  0.557649  1
  Y  Y2  1  0.000000  0.000000  0.442351  1
  Ge  Ge3  1  0.666667  0.666667  0.500000  1
  I  I4  1  -0.000000  0.000000  0.631601  1
  I  I5  1  0.333333  0.333333  0.368399  1
