# generated using pymatgen
data_VO2F
_symmetry_space_group_name_H-M   'P 1'
_cell_length_a   3.19013292
_cell_length_b   4.23809257
_cell_length_c   22.45298400
_cell_angle_alpha   90.00000000
_cell_angle_beta   90.00000000
_cell_angle_gamma   90.16706673
_symmetry_Int_Tables_number   1
_chemical_formula_structural   VO2F
_chemical_formula_sum   'V1 O2 F1'
_cell_volume   303.56481898
_cell_formula_units_Z   1
loop_
 _symmetry_equiv_pos_site_id
 _symmetry_equiv_pos_as_xyz
  1  'x, y, z'
loop_
 _atom_site_type_symbol
 _atom_site_label
 _atom_site_symmetry_multiplicity
 _atom_site_fract_x
 _atom_site_fract_y
 _atom_site_fract_z
 _atom_site_occupancy
  V  V1  1  0.509144  0.397939  0.510942  1
  O  O2  1  0.506684  0.014842  0.510700  1
  O  O3  1  0.009055  0.502591  0.543748  1
  F  F4  1  0.512412  0.491315  0.434609  1
