# generated using pymatgen
data_MgBi2
_symmetry_space_group_name_H-M   'P 1'
_cell_length_a   3.39186951
_cell_length_b   6.72606558
_cell_length_c   24.98001200
_cell_angle_alpha   90.00000000
_cell_angle_beta   90.00000000
_cell_angle_gamma   75.39559671
_symmetry_Int_Tables_number   1
_chemical_formula_structural   MgBi2
_chemical_formula_sum   'Mg2 Bi4'
_cell_volume   551.47907404
_cell_formula_units_Z   2
loop_
 _symmetry_equiv_pos_site_id
 _symmetry_equiv_pos_as_xyz
  1  'x, y, z'
loop_
 _atom_site_type_symbol
 _atom_site_label
 _atom_site_symmetry_multiplicity
 _atom_site_fract_x
 _atom_site_fract_y
 _atom_site_fract_z
 _atom_site_occupancy
  Mg  Mg1  1  0.362851  0.274298  0.495251  1
  Mg  Mg2  1  0.637149  0.725702  0.504749  1
  Bi  Bi3  1  0.770213  0.459573  0.402808  1
  Bi  Bi4  1  0.018834  0.962333  0.415524  1
  Bi  Bi5  1  0.981166  0.037667  0.584476  1
  Bi  Bi6  1  0.229787  0.540427  0.597192  1
