# generated using pymatgen
data_C3N4
_symmetry_space_group_name_H-M   'P 1'
_cell_length_a   4.72013010
_cell_length_b   4.70369928
_cell_length_c   20.78465175
_cell_angle_alpha   89.95994232
_cell_angle_beta   89.95060379
_cell_angle_gamma   60.10866136
_symmetry_Int_Tables_number   1
_chemical_formula_structural   C3N4
_chemical_formula_sum   'C3 N4'
_cell_volume   400.07480900
_cell_formula_units_Z   1
loop_
 _symmetry_equiv_pos_site_id
 _symmetry_equiv_pos_as_xyz
  1  'x, y, z'
loop_
 _atom_site_type_symbol
 _atom_site_label
 _atom_site_symmetry_multiplicity
 _atom_site_fract_x
 _atom_site_fract_y
 _atom_site_fract_z
 _atom_site_occupancy
  C  C1  1  0.829642  0.865488  0.494093  1
  C  C2  1  0.358015  0.864279  0.499909  1
  C  C3  1  0.829548  0.391144  0.505962  1
  N  N4  1  0.509433  0.551762  0.519281  1
  N  N5  1  0.995632  0.545135  0.500250  1
  N  N6  1  0.509870  0.024849  0.480442  1
  N  N7  1  0.003483  0.041386  0.500065  1
