# generated using pymatgen
data_CaSb2O5
_symmetry_space_group_name_H-M   'P 1'
_cell_length_a   3.91642412
_cell_length_b   5.95926023
_cell_length_c   23.87996629
_cell_angle_alpha   90.00000000
_cell_angle_beta   90.00000000
_cell_angle_gamma   109.18380951
_symmetry_Int_Tables_number   1
_chemical_formula_structural   CaSb2O5
_chemical_formula_sum   'Ca1 Sb2 O5'
_cell_volume   526.38512141
_cell_formula_units_Z   1
loop_
 _symmetry_equiv_pos_site_id
 _symmetry_equiv_pos_as_xyz
  1  'x, y, z'
loop_
 _atom_site_type_symbol
 _atom_site_label
 _atom_site_symmetry_multiplicity
 _atom_site_fract_x
 _atom_site_fract_y
 _atom_site_fract_z
 _atom_site_occupancy
  Ca  Ca1  1  0.905252  0.810504  0.500000  1
  Sb  Sb2  1  0.205121  0.410242  0.421043  1
  Sb  Sb3  1  0.205121  0.410242  0.578957  1
  O  O4  1  0.283980  0.567960  0.500000  1
  O  O5  1  0.758139  0.516277  0.588295  1
  O  O6  1  0.758139  0.516277  0.411705  1
  O  O7  1  0.040801  0.081603  0.434138  1
  O  O8  1  0.040801  0.081603  0.565862  1
