# generated using pymatgen
data_CuSeO3
_symmetry_space_group_name_H-M   'P 1'
_cell_length_a   6.12848981
_cell_length_b   12.37304751
_cell_length_c   22.10406400
_cell_angle_alpha   90.00000000
_cell_angle_beta   90.00000000
_cell_angle_gamma   90.00000000
_symmetry_Int_Tables_number   1
_chemical_formula_structural   CuSeO3
_chemical_formula_sum   'Cu4 Se4 O12'
_cell_volume   1676.10907778
_cell_formula_units_Z   4
loop_
 _symmetry_equiv_pos_site_id
 _symmetry_equiv_pos_as_xyz
  1  'x, y, z'
loop_
 _atom_site_type_symbol
 _atom_site_label
 _atom_site_symmetry_multiplicity
 _atom_site_fract_x
 _atom_site_fract_y
 _atom_site_fract_z
 _atom_site_occupancy
  Cu  Cu1  1  0.162619  0.906818  0.488916  1
  Cu  Cu2  1  0.662619  0.593182  0.511084  1
  Cu  Cu3  1  0.837381  0.093182  0.511084  1
  Cu  Cu4  1  0.337381  0.406818  0.488916  1
  Se  Se5  1  0.384035  0.146831  0.482566  1
  Se  Se6  1  0.884035  0.353169  0.517434  1
  Se  Se7  1  0.615965  0.853169  0.517434  1
  Se  Se8  1  0.115965  0.646831  0.482566  1
  O  O9  1  0.959494  0.589620  0.539161  1
  O  O10  1  0.459494  0.910380  0.460839  1
  O  O11  1  0.040506  0.410380  0.460839  1
  O  O12  1  0.540506  0.089620  0.539161  1
  O  O13  1  0.359745  0.565033  0.490789  1
  O  O14  1  0.859745  0.934967  0.509211  1
  O  O15  1  0.640255  0.434967  0.509211  1
  O  O16  1  0.140255  0.065033  0.490789  1
  O  O17  1  0.292416  0.261534  0.518089  1
  O  O18  1  0.792416  0.238466  0.481911  1
  O  O19  1  0.707584  0.738466  0.481911  1
  O  O20  1  0.207584  0.761534  0.518089  1
