# generated using pymatgen
data_SbO2
_symmetry_space_group_name_H-M   'P 1'
_cell_length_a   3.41065078
_cell_length_b   3.41065043
_cell_length_c   21.90319400
_cell_angle_alpha   90.00000000
_cell_angle_beta   90.00000000
_cell_angle_gamma   59.99999665
_symmetry_Int_Tables_number   1
_chemical_formula_structural   SbO2
_chemical_formula_sum   'Sb1 O2'
_cell_volume   220.65436875
_cell_formula_units_Z   1
loop_
 _symmetry_equiv_pos_site_id
 _symmetry_equiv_pos_as_xyz
  1  'x, y, z'
loop_
 _atom_site_type_symbol
 _atom_site_label
 _atom_site_symmetry_multiplicity
 _atom_site_fract_x
 _atom_site_fract_y
 _atom_site_fract_z
 _atom_site_occupancy
  Sb  Sb1  1  0.666667  0.666667  0.500000  1
  O  O2  1  0.000000  0.000000  0.543448  1
  O  O3  1  0.333333  0.333333  0.456552  1
