# generated using pymatgen
data_CdCu2O3
_symmetry_space_group_name_H-M   'P 1'
_cell_length_a   4.04311984
_cell_length_b   9.50390015
_cell_length_c   25.12564300
_cell_angle_alpha   90.00000000
_cell_angle_beta   90.00000000
_cell_angle_gamma   90.00000000
_symmetry_Int_Tables_number   1
_chemical_formula_structural   CdCu2O3
_chemical_formula_sum   'Cd2 Cu4 O6'
_cell_volume   965.46306479
_cell_formula_units_Z   2
loop_
 _symmetry_equiv_pos_site_id
 _symmetry_equiv_pos_as_xyz
  1  'x, y, z'
loop_
 _atom_site_type_symbol
 _atom_site_label
 _atom_site_symmetry_multiplicity
 _atom_site_fract_x
 _atom_site_fract_y
 _atom_site_fract_z
 _atom_site_occupancy
  Cd  Cd1  1  -0.000000  0.000000  0.413187  1
  Cd  Cd2  1  0.500000  0.500000  0.586812  1
  Cu  Cu3  1  0.000000  0.336794  0.521092  1
  Cu  Cu4  1  -0.000000  0.663206  0.521092  1
  Cu  Cu5  1  0.500000  0.836794  0.478908  1
  Cu  Cu6  1  0.500000  0.163206  0.478908  1
  O  O7  1  0.000000  0.500000  0.568595  1
  O  O8  1  0.000000  0.821148  0.476122  1
  O  O9  1  0.000000  0.178852  0.476122  1
  O  O10  1  0.500000  0.000000  0.431405  1
  O  O11  1  0.500000  0.321148  0.523878  1
  O  O12  1  0.500000  0.678852  0.523878  1
