# generated using pymatgen
data_MoO3
_symmetry_space_group_name_H-M   'P 1'
_cell_length_a   5.29255085
_cell_length_b   5.28367733
_cell_length_c   22.22943392
_cell_angle_alpha   90.48253939
_cell_angle_beta   90.00000000
_cell_angle_gamma   90.00000000
_symmetry_Int_Tables_number   1
_chemical_formula_structural   MoO3
_chemical_formula_sum   'Mo2 O6'
_cell_volume   621.60475617
_cell_formula_units_Z   2
loop_
 _symmetry_equiv_pos_site_id
 _symmetry_equiv_pos_as_xyz
  1  'x, y, z'
loop_
 _atom_site_type_symbol
 _atom_site_label
 _atom_site_symmetry_multiplicity
 _atom_site_fract_x
 _atom_site_fract_y
 _atom_site_fract_z
 _atom_site_occupancy
  Mo  Mo1  1  0.253126  0.905220  0.508396  1
  Mo  Mo2  1  0.746874  0.405220  0.508396  1
  O  O3  1  0.501733  0.670955  0.532304  1
  O  O4  1  0.498267  0.170955  0.532304  1
  O  O5  1  0.732970  0.401372  0.431939  1
  O  O6  1  0.267030  0.901372  0.431939  1
  O  O7  1  0.991214  0.677421  0.527362  1
  O  O8  1  0.008786  0.177421  0.527362  1
