# generated using pymatgen
data_Sn(PS3)2
_symmetry_space_group_name_H-M   'P 1'
_cell_length_a   6.06639393
_cell_length_b   6.06639381
_cell_length_c   23.37358000
_cell_angle_alpha   90.00000000
_cell_angle_beta   90.00000000
_cell_angle_gamma   59.99999939
_symmetry_Int_Tables_number   1
_chemical_formula_structural   Sn(PS3)2
_chemical_formula_sum   'Sn1 P2 S6'
_cell_volume   744.93275894
_cell_formula_units_Z   1
loop_
 _symmetry_equiv_pos_site_id
 _symmetry_equiv_pos_as_xyz
  1  'x, y, z'
loop_
 _atom_site_type_symbol
 _atom_site_label
 _atom_site_symmetry_multiplicity
 _atom_site_fract_x
 _atom_site_fract_y
 _atom_site_fract_z
 _atom_site_occupancy
  Sn  Sn1  1  0.666667  0.666667  0.499991  1
  P  P2  1  0.333333  0.333333  0.548065  1
  P  P3  1  0.333333  0.333333  0.452024  1
  S  S4  1  0.653510  0.340336  0.571826  1
  S  S5  1  0.340336  0.006153  0.571826  1
  S  S6  1  0.006153  0.653510  0.571826  1
  S  S7  1  0.340639  0.653261  0.428146  1
  S  S8  1  0.653261  0.006099  0.428146  1
  S  S9  1  0.006099  0.340639  0.428146  1
