# generated using pymatgen
data_V3(OF)4
_symmetry_space_group_name_H-M   'P 1'
_cell_length_a   2.98704148
_cell_length_b   4.68451887
_cell_length_c   27.46614200
_cell_angle_alpha   90.00000000
_cell_angle_beta   90.00000000
_cell_angle_gamma   90.00000000
_symmetry_Int_Tables_number   1
_chemical_formula_structural   V3(OF)4
_chemical_formula_sum   'V3 O4 F4'
_cell_volume   384.32966492
_cell_formula_units_Z   1
loop_
 _symmetry_equiv_pos_site_id
 _symmetry_equiv_pos_as_xyz
  1  'x, y, z'
loop_
 _atom_site_type_symbol
 _atom_site_label
 _atom_site_symmetry_multiplicity
 _atom_site_fract_x
 _atom_site_fract_y
 _atom_site_fract_z
 _atom_site_occupancy
  V  V1  1  0.500000  0.944071  0.415355  1
  V  V2  1  0.500000  0.360470  0.589012  1
  V  V3  1  0.000000  0.451768  0.495008  1
  O  O4  1  0.000000  0.200385  0.552994  1
  O  O5  1  0.500000  0.246868  0.463472  1
  O  O6  1  0.500000  0.617866  0.531361  1
  O  O7  1  0.000000  0.761525  0.448511  1
  F  F8  1  0.500000  0.112678  0.637145  1
  F  F9  1  -0.000000  0.159391  0.385735  1
  F  F10  1  0.000000  0.588454  0.616086  1
  F  F11  1  0.500000  0.709168  0.365322  1
