# generated using pymatgen
data_Mn(ReO4)2
_symmetry_space_group_name_H-M   'P 1'
_cell_length_a   5.92327820
_cell_length_b   5.92327895
_cell_length_c   27.11913000
_cell_angle_alpha   90.00000000
_cell_angle_beta   90.00000000
_cell_angle_gamma   120.00000137
_symmetry_Int_Tables_number   1
_chemical_formula_structural   Mn(ReO4)2
_chemical_formula_sum   'Mn1 Re2 O8'
_cell_volume   824.00660944
_cell_formula_units_Z   1
loop_
 _symmetry_equiv_pos_site_id
 _symmetry_equiv_pos_as_xyz
  1  'x, y, z'
loop_
 _atom_site_type_symbol
 _atom_site_label
 _atom_site_symmetry_multiplicity
 _atom_site_fract_x
 _atom_site_fract_y
 _atom_site_fract_z
 _atom_site_occupancy
  Mn  Mn1  1  -0.000000  -0.000000  0.500000  1
  Re  Re2  1  0.333333  0.666667  0.432686  1
  Re  Re3  1  0.666667  0.333333  0.567314  1
  O  O4  1  0.666667  0.333333  0.630981  1
  O  O5  1  0.333333  0.666667  0.369019  1
  O  O6  1  0.342451  0.161857  0.545636  1
  O  O7  1  0.180594  0.342451  0.454364  1
  O  O8  1  0.161857  0.819406  0.454364  1
  O  O9  1  0.657549  0.838143  0.454364  1
  O  O10  1  0.819406  0.657549  0.545636  1
  O  O11  1  0.838143  0.180594  0.545636  1
