# generated using pymatgen
data_AgTeO3
_symmetry_space_group_name_H-M   'P 1'
_cell_length_a   6.75574906
_cell_length_b   7.44796185
_cell_length_c   27.20099700
_cell_angle_alpha   90.00000000
_cell_angle_beta   90.00000000
_cell_angle_gamma   90.00000000
_symmetry_Int_Tables_number   1
_chemical_formula_structural   AgTeO3
_chemical_formula_sum   'Ag4 Te4 O12'
_cell_volume   1368.66063208
_cell_formula_units_Z   4
loop_
 _symmetry_equiv_pos_site_id
 _symmetry_equiv_pos_as_xyz
  1  'x, y, z'
loop_
 _atom_site_type_symbol
 _atom_site_label
 _atom_site_symmetry_multiplicity
 _atom_site_fract_x
 _atom_site_fract_y
 _atom_site_fract_z
 _atom_site_occupancy
  Ag  Ag1  1  0.000000  0.500000  0.500000  1
  Ag  Ag2  1  -0.000000  -0.000000  0.500000  1
  Ag  Ag3  1  0.877770  0.250000  0.580508  1
  Ag  Ag4  1  0.122230  0.750000  0.419492  1
  Te  Te5  1  0.628256  0.750000  0.394709  1
  Te  Te6  1  0.371744  0.250000  0.605291  1
  Te  Te7  1  0.500000  -0.000000  0.500000  1
  Te  Te8  1  0.500000  0.500000  0.500000  1
  O  O9  1  0.272569  0.514097  0.458435  1
  O  O10  1  0.321261  0.061510  0.557948  1
  O  O11  1  0.876561  0.750000  0.366821  1
  O  O12  1  0.461722  0.750000  0.520845  1
  O  O13  1  0.272569  0.985903  0.458435  1
  O  O14  1  0.538278  0.250000  0.479155  1
  O  O15  1  0.321261  0.438490  0.557948  1
  O  O16  1  0.678739  0.938490  0.442052  1
  O  O17  1  0.727431  0.014097  0.541565  1
  O  O18  1  0.727431  0.485903  0.541565  1
  O  O19  1  0.678739  0.561510  0.442052  1
  O  O20  1  0.123439  0.250000  0.633179  1
