# generated using pymatgen
data_Ge4Te7As2
_symmetry_space_group_name_H-M   'P 1'
_cell_length_a   4.19653410
_cell_length_b   4.19653343
_cell_length_c   60.79867200
_cell_angle_alpha   90.00000000
_cell_angle_beta   90.00000000
_cell_angle_gamma   60.00000258
_symmetry_Int_Tables_number   1
_chemical_formula_structural   Ge4Te7As2
_chemical_formula_sum   'Ge4 Te7 As2'
_cell_volume   927.26993636
_cell_formula_units_Z   1
loop_
 _symmetry_equiv_pos_site_id
 _symmetry_equiv_pos_as_xyz
  1  'x, y, z'
loop_
 _atom_site_type_symbol
 _atom_site_label
 _atom_site_symmetry_multiplicity
 _atom_site_fract_x
 _atom_site_fract_y
 _atom_site_fract_z
 _atom_site_occupancy
  Ge  Ge1  1  -0.000000  0.000000  0.587430  1
  Ge  Ge2  1  0.666667  0.666667  0.470891  1
  Ge  Ge3  1  0.333333  0.333333  0.529109  1
  Ge  Ge4  1  -0.000000  0.000000  0.412570  1
  Te  Te5  1  -0.000000  0.000000  0.671525  1
  Te  Te6  1  0.333333  0.333333  0.615592  1
  Te  Te7  1  0.666667  0.666667  0.384408  1
  Te  Te8  1  -0.000000  0.000000  0.328475  1
  Te  Te9  1  -0.000000  0.000000  0.500000  1
  Te  Te10  1  0.333333  0.333333  0.442304  1
  Te  Te11  1  0.666667  0.666667  0.557696  1
  As  As12  1  0.333333  0.333333  0.353513  1
  As  As13  1  0.666667  0.666667  0.646487  1
