# generated using pymatgen
data_GaAg(PSe3)2
_symmetry_space_group_name_H-M   'P 1'
_cell_length_a   6.43423505
_cell_length_b   6.43423439
_cell_length_c   23.50350561
_cell_angle_alpha   90.00000000
_cell_angle_beta   90.00000000
_cell_angle_gamma   120.00000345
_symmetry_Int_Tables_number   1
_chemical_formula_structural   GaAg(PSe3)2
_chemical_formula_sum   'Ga1 Ag1 P2 Se6'
_cell_volume   842.66908148
_cell_formula_units_Z   1
loop_
 _symmetry_equiv_pos_site_id
 _symmetry_equiv_pos_as_xyz
  1  'x, y, z'
loop_
 _atom_site_type_symbol
 _atom_site_label
 _atom_site_symmetry_multiplicity
 _atom_site_fract_x
 _atom_site_fract_y
 _atom_site_fract_z
 _atom_site_occupancy
  Ga  Ga1  1  0.000000  0.000000  0.500000  1
  Ag  Ag2  1  0.666667  0.333333  0.500000  1
  P  P3  1  0.333333  0.666667  0.451783  1
  P  P4  1  0.333333  0.666667  0.548217  1
  Se  Se5  1  0.300476  0.982481  0.573931  1
  Se  Se6  1  0.017519  0.699524  0.426069  1
  Se  Se7  1  0.017519  0.317995  0.573931  1
  Se  Se8  1  0.682005  0.982481  0.426069  1
  Se  Se9  1  0.300476  0.317995  0.426069  1
  Se  Se10  1  0.682005  0.699524  0.573931  1
