# generated using pymatgen
data_AgF2
_symmetry_space_group_name_H-M   'P 1'
_cell_length_a   3.76225811
_cell_length_b   5.87918709
_cell_length_c   21.47835500
_cell_angle_alpha   90.00000000
_cell_angle_beta   90.00000000
_cell_angle_gamma   90.00000000
_symmetry_Int_Tables_number   1
_chemical_formula_structural   AgF2
_chemical_formula_sum   'Ag2 F4'
_cell_volume   475.08014898
_cell_formula_units_Z   2
loop_
 _symmetry_equiv_pos_site_id
 _symmetry_equiv_pos_as_xyz
  1  'x, y, z'
loop_
 _atom_site_type_symbol
 _atom_site_label
 _atom_site_symmetry_multiplicity
 _atom_site_fract_x
 _atom_site_fract_y
 _atom_site_fract_z
 _atom_site_occupancy
  Ag  Ag1  1  0.500000  0.500000  0.500000  1
  Ag  Ag2  1  0.000000  0.000000  0.500000  1
  F  F3  1  0.090524  0.681559  0.546448  1
  F  F4  1  0.590524  0.818441  0.453552  1
  F  F5  1  0.409476  0.181559  0.546448  1
  F  F6  1  0.909476  0.318441  0.453552  1
