# generated using pymatgen
data_Zn2Ni3O8
_symmetry_space_group_name_H-M   'P 1'
_cell_length_a   4.90619608
_cell_length_b   5.74656735
_cell_length_c   23.97916500
_cell_angle_alpha   90.00000000
_cell_angle_beta   90.00000000
_cell_angle_gamma   90.00000000
_symmetry_Int_Tables_number   1
_chemical_formula_structural   Zn2Ni3O8
_chemical_formula_sum   'Zn2 Ni3 O8'
_cell_volume   676.06345141
_cell_formula_units_Z   1
loop_
 _symmetry_equiv_pos_site_id
 _symmetry_equiv_pos_as_xyz
  1  'x, y, z'
loop_
 _atom_site_type_symbol
 _atom_site_label
 _atom_site_symmetry_multiplicity
 _atom_site_fract_x
 _atom_site_fract_y
 _atom_site_fract_z
 _atom_site_occupancy
  Zn  Zn1  1  0.477041  -0.000000  0.558343  1
  Zn  Zn2  1  0.480117  -0.000000  0.441657  1
  Ni  Ni3  1  0.478579  0.500000  0.500000  1
  Ni  Ni4  1  0.978579  0.252829  0.500000  1
  Ni  Ni5  1  0.978579  0.747171  0.500000  1
  O  O6  1  0.098578  -0.000000  0.455763  1
  O  O7  1  0.858580  -0.000000  0.544237  1
  O  O8  1  0.147456  0.500000  0.460121  1
  O  O9  1  0.809702  0.500000  0.539879  1
  O  O10  1  0.293517  0.720767  0.543505  1
  O  O11  1  0.293517  0.279233  0.543505  1
  O  O12  1  0.663641  0.720767  0.456495  1
  O  O13  1  0.663641  0.279233  0.456495  1
