# generated using pymatgen
data_Eu(CdP)2
_symmetry_space_group_name_H-M   'P 1'
_cell_length_a   4.31202555
_cell_length_b   4.31202547
_cell_length_c   25.18444400
_cell_angle_alpha   90.00000000
_cell_angle_beta   90.00000000
_cell_angle_gamma   120.00000053
_symmetry_Int_Tables_number   1
_chemical_formula_structural   Eu(CdP)2
_chemical_formula_sum   'Eu1 Cd2 P2'
_cell_volume   405.53247649
_cell_formula_units_Z   1
loop_
 _symmetry_equiv_pos_site_id
 _symmetry_equiv_pos_as_xyz
  1  'x, y, z'
loop_
 _atom_site_type_symbol
 _atom_site_label
 _atom_site_symmetry_multiplicity
 _atom_site_fract_x
 _atom_site_fract_y
 _atom_site_fract_z
 _atom_site_occupancy
  Eu  Eu1  1  0.000000  0.000000  0.500000  1
  Cd  Cd2  1  0.666667  0.333333  0.401778  1
  Cd  Cd3  1  0.333333  0.666667  0.598222  1
  P  P4  1  0.666667  0.333333  0.573135  1
  P  P5  1  0.333333  0.666667  0.426865  1
