# generated using pymatgen
data_CdInGaS4
_symmetry_space_group_name_H-M   'P 1'
_cell_length_a   3.89140155
_cell_length_b   3.89140110
_cell_length_c   29.63090823
_cell_angle_alpha   90.00000000
_cell_angle_beta   90.00000000
_cell_angle_gamma   120.00000388
_symmetry_Int_Tables_number   1
_chemical_formula_structural   CdInGaS4
_chemical_formula_sum   'Cd1 In1 Ga1 S4'
_cell_volume   388.58642379
_cell_formula_units_Z   1
loop_
 _symmetry_equiv_pos_site_id
 _symmetry_equiv_pos_as_xyz
  1  'x, y, z'
loop_
 _atom_site_type_symbol
 _atom_site_label
 _atom_site_symmetry_multiplicity
 _atom_site_fract_x
 _atom_site_fract_y
 _atom_site_fract_z
 _atom_site_occupancy
  Cd  Cd1  1  0.666667  0.333333  0.502880  1
  In  In2  1  0.333333  0.666667  0.373195  1
  Ga  Ga3  1  0.000000  0.000000  0.626168  1
  S  S4  1  0.333333  0.666667  0.657958  1
  S  S5  1  0.000000  0.000000  0.333987  1
  S  S6  1  0.333333  0.666667  0.454388  1
  S  S7  1  0.000000  0.000000  0.551425  1
