# generated using pymatgen
data_YZnPO
_symmetry_space_group_name_H-M   'P 1'
_cell_length_a   3.89822173
_cell_length_b   3.89822179
_cell_length_c   28.36134100
_cell_angle_alpha   90.00000000
_cell_angle_beta   90.00000000
_cell_angle_gamma   60.00000039
_symmetry_Int_Tables_number   1
_chemical_formula_structural   YZnPO
_chemical_formula_sum   'Y2 Zn2 P2 O2'
_cell_volume   373.24197380
_cell_formula_units_Z   2
loop_
 _symmetry_equiv_pos_site_id
 _symmetry_equiv_pos_as_xyz
  1  'x, y, z'
loop_
 _atom_site_type_symbol
 _atom_site_label
 _atom_site_symmetry_multiplicity
 _atom_site_fract_x
 _atom_site_fract_y
 _atom_site_fract_z
 _atom_site_occupancy
  Y  Y1  1  0.666667  0.666667  0.550177  1
  Y  Y2  1  0.333333  0.333333  0.449823  1
  Zn  Zn3  1  0.666667  0.666667  0.358974  1
  Zn  Zn4  1  0.333333  0.333333  0.641026  1
  P  P5  1  -0.000000  0.000000  0.375835  1
  P  P6  1  -0.000000  0.000000  0.624165  1
  O  O7  1  0.666667  0.666667  0.469631  1
  O  O8  1  0.333333  0.333333  0.530369  1
