# generated using pymatgen
data_LiCu2F5
_symmetry_space_group_name_H-M   'P 1'
_cell_length_a   3.76195516
_cell_length_b   10.51496336
_cell_length_c   21.61151000
_cell_angle_alpha   90.00000000
_cell_angle_beta   90.00000000
_cell_angle_gamma   90.01344469
_symmetry_Int_Tables_number   1
_chemical_formula_structural   LiCu2F5
_chemical_formula_sum   'Li1 Cu2 F5'
_cell_volume   854.88260194
_cell_formula_units_Z   1
loop_
 _symmetry_equiv_pos_site_id
 _symmetry_equiv_pos_as_xyz
  1  'x, y, z'
loop_
 _atom_site_type_symbol
 _atom_site_label
 _atom_site_symmetry_multiplicity
 _atom_site_fract_x
 _atom_site_fract_y
 _atom_site_fract_z
 _atom_site_occupancy
  Li  Li1  1  0.498397  0.248434  0.516036  1
  Cu  Cu2  1  0.498973  0.581736  0.496096  1
  Cu  Cu3  1  0.499654  0.916418  0.493352  1
  F  F4  1  0.499563  0.412677  0.521126  1
  F  F5  1  0.499946  0.084128  0.520068  1
  F  F6  1  0.499745  0.747963  0.465510  1
  F  F7  1  -0.000030  0.916740  0.493414  1
  F  F8  1  0.000186  0.580543  0.494398  1
