# generated using pymatgen
data_SmSI
_symmetry_space_group_name_H-M   'P 1'
_cell_length_a   4.56807157
_cell_length_b   4.56807162
_cell_length_c   27.70980911
_cell_angle_alpha   90.00000000
_cell_angle_beta   90.00000000
_cell_angle_gamma   60.00000046
_symmetry_Int_Tables_number   1
_chemical_formula_structural   SmSI
_chemical_formula_sum   'Sm2 S2 I2'
_cell_volume   500.76039331
_cell_formula_units_Z   2
loop_
 _symmetry_equiv_pos_site_id
 _symmetry_equiv_pos_as_xyz
  1  'x, y, z'
loop_
 _atom_site_type_symbol
 _atom_site_label
 _atom_site_symmetry_multiplicity
 _atom_site_fract_x
 _atom_site_fract_y
 _atom_site_fract_z
 _atom_site_occupancy
  Sm  Sm1  1  0.333333  0.333333  0.434812  1
  Sm  Sm2  1  0.666667  0.666667  0.565188  1
  S  S3  1  0.333333  0.333333  0.537359  1
  S  S4  1  0.666667  0.666667  0.462641  1
  I  I5  1  -0.000000  -0.000000  0.362760  1
  I  I6  1  -0.000000  -0.000000  0.637240  1
