# generated using pymatgen
data_Ag2Se
_symmetry_space_group_name_H-M   'P 1'
_cell_length_a   4.76161312
_cell_length_b   5.99082176
_cell_length_c   23.35703700
_cell_angle_alpha   90.00000000
_cell_angle_beta   90.00000000
_cell_angle_gamma   90.00000000
_symmetry_Int_Tables_number   1
_chemical_formula_structural   Ag2Se
_chemical_formula_sum   'Ag4 Se2'
_cell_volume   666.28226503
_cell_formula_units_Z   2
loop_
 _symmetry_equiv_pos_site_id
 _symmetry_equiv_pos_as_xyz
  1  'x, y, z'
loop_
 _atom_site_type_symbol
 _atom_site_label
 _atom_site_symmetry_multiplicity
 _atom_site_fract_x
 _atom_site_fract_y
 _atom_site_fract_z
 _atom_site_occupancy
  Ag  Ag1  1  0.499896  0.007225  0.499585  1
  Ag  Ag2  1  0.999891  0.758361  0.455755  1
  Ag  Ag3  1  0.000109  0.258361  0.544245  1
  Ag  Ag4  1  0.500104  0.507225  0.500415  1
  Se  Se5  1  0.499847  0.755038  0.412568  1
  Se  Se6  1  0.500153  0.255038  0.587432  1
