# generated using pymatgen
data_Ga2O3
_symmetry_space_group_name_H-M   'P 1'
_cell_length_a   5.57734207
_cell_length_b   5.57734126
_cell_length_c   21.65556700
_cell_angle_alpha   90.00000000
_cell_angle_beta   90.00000000
_cell_angle_gamma   60.00000279
_symmetry_Int_Tables_number   1
_chemical_formula_structural   Ga2O3
_chemical_formula_sum   'Ga2 O3'
_cell_volume   583.38425432
_cell_formula_units_Z   1
loop_
 _symmetry_equiv_pos_site_id
 _symmetry_equiv_pos_as_xyz
  1  'x, y, z'
loop_
 _atom_site_type_symbol
 _atom_site_label
 _atom_site_symmetry_multiplicity
 _atom_site_fract_x
 _atom_site_fract_y
 _atom_site_fract_z
 _atom_site_occupancy
  Ga  Ga1  1  0.666667  0.666667  0.499792  1
  Ga  Ga2  1  0.333333  0.333333  0.500208  1
  O  O3  1  0.361445  1.000000  0.500000  1
  O  O4  1  1.000000  0.638555  0.500000  1
  O  O5  1  0.638555  0.361445  0.500000  1
