# generated using pymatgen
data_YCl
_symmetry_space_group_name_H-M   'P 1'
_cell_length_a   3.73008288
_cell_length_b   3.73008279
_cell_length_c   26.24199720
_cell_angle_alpha   90.00000000
_cell_angle_beta   90.00000000
_cell_angle_gamma   59.99999921
_symmetry_Int_Tables_number   1
_chemical_formula_structural   YCl
_chemical_formula_sum   'Y2 Cl2'
_cell_volume   316.20189335
_cell_formula_units_Z   2
loop_
 _symmetry_equiv_pos_site_id
 _symmetry_equiv_pos_as_xyz
  1  'x, y, z'
loop_
 _atom_site_type_symbol
 _atom_site_label
 _atom_site_symmetry_multiplicity
 _atom_site_fract_x
 _atom_site_fract_y
 _atom_site_fract_z
 _atom_site_occupancy
  Y  Y1  1  0.333333  0.333333  0.446894  1
  Y  Y2  1  -0.000000  0.000000  0.553106  1
  Cl  Cl3  1  0.666667  0.666667  0.619549  1
  Cl  Cl4  1  0.666667  0.666667  0.380451  1
