# generated using pymatgen
data_Ti(GaO2)4
_symmetry_space_group_name_H-M   'P 1'
_cell_length_a   3.08900008
_cell_length_b   5.97062087
_cell_length_c   27.27896300
_cell_angle_alpha   90.00000000
_cell_angle_beta   90.00000000
_cell_angle_gamma   104.99195377
_symmetry_Int_Tables_number   1
_chemical_formula_structural   Ti(GaO2)4
_chemical_formula_sum   'Ti1 Ga4 O8'
_cell_volume   485.98782149
_cell_formula_units_Z   1
loop_
 _symmetry_equiv_pos_site_id
 _symmetry_equiv_pos_as_xyz
  1  'x, y, z'
loop_
 _atom_site_type_symbol
 _atom_site_label
 _atom_site_symmetry_multiplicity
 _atom_site_fract_x
 _atom_site_fract_y
 _atom_site_fract_z
 _atom_site_occupancy
  Ti  Ti1  1  0.000000  -0.000000  0.500000  1
  Ga  Ga2  1  0.614917  0.229834  0.604518  1
  Ga  Ga3  1  0.637322  0.274645  0.409829  1
  Ga  Ga4  1  0.362678  0.725355  0.590171  1
  Ga  Ga5  1  0.385083  0.770166  0.395482  1
  O  O6  1  0.792631  0.585263  0.387926  1
  O  O7  1  0.571936  0.143872  0.535387  1
  O  O8  1  0.428064  0.856128  0.464613  1
  O  O9  1  0.874099  0.748196  0.550193  1
  O  O10  1  0.207369  0.414737  0.612074  1
  O  O11  1  0.522574  0.045147  0.364895  1
  O  O12  1  0.477426  0.954853  0.635105  1
  O  O13  1  0.125901  0.251804  0.449807  1
