# generated using pymatgen
data_Cr3O8
_symmetry_space_group_name_H-M   'P 1'
_cell_length_a   5.12280035
_cell_length_b   5.12217223
_cell_length_c   26.24262300
_cell_angle_alpha   90.00000000
_cell_angle_beta   90.00000000
_cell_angle_gamma   63.85406857
_symmetry_Int_Tables_number   1
_chemical_formula_structural   Cr3O8
_chemical_formula_sum   'Cr3 O8'
_cell_volume   618.14133999
_cell_formula_units_Z   1
loop_
 _symmetry_equiv_pos_site_id
 _symmetry_equiv_pos_as_xyz
  1  'x, y, z'
loop_
 _atom_site_type_symbol
 _atom_site_label
 _atom_site_symmetry_multiplicity
 _atom_site_fract_x
 _atom_site_fract_y
 _atom_site_fract_z
 _atom_site_occupancy
  Cr  Cr1  1  0.369464  0.369824  0.440021  1
  Cr  Cr2  1  0.011941  0.012200  0.499991  1
  Cr  Cr3  1  0.654354  0.654512  0.560021  1
  O  O4  1  0.798131  0.284979  0.551343  1
  O  O5  1  0.232110  0.232471  0.484592  1
  O  O6  1  0.225832  0.739229  0.448664  1
  O  O7  1  0.725250  0.725787  0.615936  1
  O  O8  1  0.284975  0.797858  0.551249  1
  O  O9  1  0.298464  0.298296  0.384001  1
  O  O10  1  0.738767  0.226561  0.448759  1
  O  O11  1  0.791858  0.791889  0.515426  1
