# generated using pymatgen
data_SiP2
_symmetry_space_group_name_H-M   'P 1'
_cell_length_a   3.46530004
_cell_length_b   10.24377864
_cell_length_c   25.60771800
_cell_angle_alpha   90.00000000
_cell_angle_beta   90.00000000
_cell_angle_gamma   90.00000000
_symmetry_Int_Tables_number   1
_chemical_formula_structural   SiP2
_chemical_formula_sum   'Si4 P8'
_cell_volume   909.01679495
_cell_formula_units_Z   4
loop_
 _symmetry_equiv_pos_site_id
 _symmetry_equiv_pos_as_xyz
  1  'x, y, z'
loop_
 _atom_site_type_symbol
 _atom_site_label
 _atom_site_symmetry_multiplicity
 _atom_site_fract_x
 _atom_site_fract_y
 _atom_site_fract_z
 _atom_site_occupancy
  Si  Si1  1  -0.000000  0.587970  0.551860  1
  Si  Si2  1  -0.000000  0.087970  0.448140  1
  Si  Si3  1  0.500000  0.805025  0.488529  1
  Si  Si4  1  0.500000  0.305025  0.511471  1
  P  P5  1  -0.000000  0.669746  0.469070  1
  P  P6  1  -0.000000  0.169746  0.530930  1
  P  P7  1  -0.000000  0.758299  0.609778  1
  P  P8  1  -0.000000  0.258299  0.390222  1
  P  P9  1  0.500000  0.876143  0.575972  1
  P  P10  1  0.500000  0.376143  0.424028  1
  P  P11  1  0.500000  0.959488  0.424317  1
  P  P12  1  0.500000  0.459488  0.575683  1
