# generated using pymatgen
data_SnPHO4
_symmetry_space_group_name_H-M   'P 1'
_cell_length_a   4.58727427
_cell_length_b   5.82317332
_cell_length_c   26.51269700
_cell_angle_alpha   90.00000000
_cell_angle_beta   90.00000000
_cell_angle_gamma   97.28562057
_symmetry_Int_Tables_number   1
_chemical_formula_structural   SnPHO4
_chemical_formula_sum   'Sn2 P2 H2 O8'
_cell_volume   702.50227905
_cell_formula_units_Z   2
loop_
 _symmetry_equiv_pos_site_id
 _symmetry_equiv_pos_as_xyz
  1  'x, y, z'
loop_
 _atom_site_type_symbol
 _atom_site_label
 _atom_site_symmetry_multiplicity
 _atom_site_fract_x
 _atom_site_fract_y
 _atom_site_fract_z
 _atom_site_occupancy
  Sn  Sn1  1  0.957054  0.380972  0.450001  1
  Sn  Sn2  1  0.957054  0.880972  0.549999  1
  P  P3  1  0.423714  0.942694  0.448740  1
  P  P4  1  0.423714  0.442694  0.551260  1
  H  H5  1  0.587990  0.303789  0.621487  1
  H  H6  1  0.587990  0.803789  0.378513  1
  O  O7  1  0.697920  0.043029  0.479779  1
  O  O8  1  0.697920  0.543029  0.520221  1
  O  O9  1  0.521425  0.744181  0.411432  1
  O  O10  1  0.521425  0.244181  0.588568  1
  O  O11  1  0.306240  0.128079  0.417226  1
  O  O12  1  0.306240  0.628079  0.582774  1
  O  O13  1  0.200977  0.795166  0.482701  1
  O  O14  1  0.200977  0.295166  0.517299  1
