# generated using pymatgen
data_SrHI
_symmetry_space_group_name_H-M   'P 1'
_cell_length_a   4.23844015
_cell_length_b   4.23844015
_cell_length_c   25.84415800
_cell_angle_alpha   90.00000000
_cell_angle_beta   90.00000000
_cell_angle_gamma   90.00000000
_symmetry_Int_Tables_number   1
_chemical_formula_structural   SrHI
_chemical_formula_sum   'Sr2 H2 I2'
_cell_volume   464.27414342
_cell_formula_units_Z   2
loop_
 _symmetry_equiv_pos_site_id
 _symmetry_equiv_pos_as_xyz
  1  'x, y, z'
loop_
 _atom_site_type_symbol
 _atom_site_label
 _atom_site_symmetry_multiplicity
 _atom_site_fract_x
 _atom_site_fract_y
 _atom_site_fract_z
 _atom_site_occupancy
  Sr  Sr1  1  0.500000  0.000000  0.448267  1
  Sr  Sr2  1  0.000000  0.500000  0.551733  1
  H  H3  1  0.500000  0.500000  0.500000  1
  H  H4  1  0.000000  0.000000  0.500000  1
  I  I5  1  0.500000  0.000000  0.612885  1
  I  I6  1  0.000000  0.500000  0.387115  1
