# generated using pymatgen
data_CuO2F
_symmetry_space_group_name_H-M   'P 1'
_cell_length_a   4.04055465
_cell_length_b   3.16319196
_cell_length_c   26.09707800
_cell_angle_alpha   90.00000000
_cell_angle_beta   90.00000000
_cell_angle_gamma   90.00000000
_symmetry_Int_Tables_number   1
_chemical_formula_structural   CuO2F
_chemical_formula_sum   'Cu2 O4 F2'
_cell_volume   333.54805832
_cell_formula_units_Z   2
loop_
 _symmetry_equiv_pos_site_id
 _symmetry_equiv_pos_as_xyz
  1  'x, y, z'
loop_
 _atom_site_type_symbol
 _atom_site_label
 _atom_site_symmetry_multiplicity
 _atom_site_fract_x
 _atom_site_fract_y
 _atom_site_fract_z
 _atom_site_occupancy
  Cu  Cu1  1  -0.000000  0.661450  0.433527  1
  Cu  Cu2  1  0.500000  0.161450  0.566473  1
  O  O3  1  0.000000  0.085044  0.531903  1
  O  O4  1  0.500000  0.585044  0.468097  1
  O  O5  1  0.500000  0.622578  0.518455  1
  O  O6  1  0.000000  0.122578  0.481545  1
  F  F7  1  0.000000  0.176397  0.389948  1
  F  F8  1  0.500000  0.676397  0.610052  1
