# generated using pymatgen
data_Co2NiO6
_symmetry_space_group_name_H-M   'P 1'
_cell_length_a   5.03868840
_cell_length_b   4.94194820
_cell_length_c   21.87384100
_cell_angle_alpha   90.00000000
_cell_angle_beta   90.00000000
_cell_angle_gamma   120.64968679
_symmetry_Int_Tables_number   1
_chemical_formula_structural   Co2NiO6
_chemical_formula_sum   'Co2 Ni1 O6'
_cell_volume   468.58760626
_cell_formula_units_Z   1
loop_
 _symmetry_equiv_pos_site_id
 _symmetry_equiv_pos_as_xyz
  1  'x, y, z'
loop_
 _atom_site_type_symbol
 _atom_site_label
 _atom_site_symmetry_multiplicity
 _atom_site_fract_x
 _atom_site_fract_y
 _atom_site_fract_z
 _atom_site_occupancy
  Co  Co1  1  0.330378  0.660755  0.500000  1
  Co  Co2  1  0.669623  0.339245  0.500000  1
  Ni  Ni3  1  0.000000  0.000000  0.500000  1
  O  O4  1  0.671199  -0.000000  0.457601  1
  O  O5  1  0.328801  0.000000  0.542399  1
  O  O6  1  0.686800  0.670418  0.544784  1
  O  O7  1  0.983619  0.670418  0.455216  1
  O  O8  1  0.313200  0.329582  0.455216  1
  O  O9  1  0.016381  0.329582  0.544784  1
