# generated using pymatgen
data_HgNCl
_symmetry_space_group_name_H-M   'P 1'
_cell_length_a   3.94553671
_cell_length_b   7.40374972
_cell_length_c   22.80217100
_cell_angle_alpha   90.00000000
_cell_angle_beta   90.00000000
_cell_angle_gamma   90.00000000
_symmetry_Int_Tables_number   1
_chemical_formula_structural   HgNCl
_chemical_formula_sum   'Hg2 N2 Cl2'
_cell_volume   666.09169066
_cell_formula_units_Z   2
loop_
 _symmetry_equiv_pos_site_id
 _symmetry_equiv_pos_as_xyz
  1  'x, y, z'
loop_
 _atom_site_type_symbol
 _atom_site_label
 _atom_site_symmetry_multiplicity
 _atom_site_fract_x
 _atom_site_fract_y
 _atom_site_fract_z
 _atom_site_occupancy
  Hg  Hg1  1  -0.000000  0.000000  0.500000  1
  Hg  Hg2  1  0.000000  0.500000  0.500000  1
  N  N3  1  0.000000  0.750000  0.457521  1
  N  N4  1  0.000000  0.250000  0.542479  1
  Cl  Cl5  1  0.500000  0.250000  0.440349  1
  Cl  Cl6  1  0.500000  0.750000  0.559651  1
