# generated using pymatgen
data_CoPS3
_symmetry_space_group_name_H-M   'P 1'
_cell_length_a   5.77440913
_cell_length_b   5.77440855
_cell_length_c   22.87204600
_cell_angle_alpha   90.00000000
_cell_angle_beta   90.00000000
_cell_angle_gamma   120.00907635
_symmetry_Int_Tables_number   1
_chemical_formula_structural   CoPS3
_chemical_formula_sum   'Co2 P2 S6'
_cell_volume   660.40595234
_cell_formula_units_Z   2
loop_
 _symmetry_equiv_pos_site_id
 _symmetry_equiv_pos_as_xyz
  1  'x, y, z'
loop_
 _atom_site_type_symbol
 _atom_site_label
 _atom_site_symmetry_multiplicity
 _atom_site_fract_x
 _atom_site_fract_y
 _atom_site_fract_z
 _atom_site_occupancy
  Co  Co1  1  0.666749  0.333251  0.500000  1
  Co  Co2  1  0.333251  0.666749  0.500000  1
  P  P3  1  0.999759  0.999759  0.452396  1
  P  P4  1  0.000241  0.000241  0.547604  1
  S  S5  1  0.999872  0.645206  0.436940  1
  S  S6  1  0.354794  0.000128  0.563060  1
  S  S7  1  0.645741  0.645741  0.563175  1
  S  S8  1  0.354259  0.354259  0.436825  1
  S  S9  1  0.645206  0.999872  0.436940  1
  S  S10  1  0.000128  0.354794  0.563060  1
