# generated using pymatgen
data_CeZnPO
_symmetry_space_group_name_H-M   'P 1'
_cell_length_a   3.95531955
_cell_length_b   3.95532020
_cell_length_c   28.50786900
_cell_angle_alpha   90.00000000
_cell_angle_beta   90.00000000
_cell_angle_gamma   59.99999712
_symmetry_Int_Tables_number   1
_chemical_formula_structural   CeZnPO
_chemical_formula_sum   'Ce2 Zn2 P2 O2'
_cell_volume   386.24119862
_cell_formula_units_Z   2
loop_
 _symmetry_equiv_pos_site_id
 _symmetry_equiv_pos_as_xyz
  1  'x, y, z'
loop_
 _atom_site_type_symbol
 _atom_site_label
 _atom_site_symmetry_multiplicity
 _atom_site_fract_x
 _atom_site_fract_y
 _atom_site_fract_z
 _atom_site_occupancy
  Ce  Ce1  1  0.333333  0.333333  0.552066  1
  Ce  Ce2  1  0.000000  0.000000  0.447934  1
  Zn  Zn3  1  0.000000  -0.000000  0.643883  1
  Zn  Zn4  1  0.333333  0.333333  0.356117  1
  P  P5  1  0.666667  0.666667  0.372307  1
  P  P6  1  0.666667  0.666667  0.627693  1
  O  O7  1  0.333333  0.333333  0.469032  1
  O  O8  1  -0.000000  0.000000  0.530968  1
