# generated using pymatgen
data_RbPbF3
_symmetry_space_group_name_H-M   'P 1'
_cell_length_a   4.67334796
_cell_length_b   4.67663500
_cell_length_c   36.83009030
_cell_angle_alpha   88.04251875
_cell_angle_beta   80.95466937
_cell_angle_gamma   89.99456438
_symmetry_Int_Tables_number   1
_chemical_formula_structural   RbPbF3
_chemical_formula_sum   'Rb4 Pb4 F12'
_cell_volume   794.45633946
_cell_formula_units_Z   4
loop_
 _symmetry_equiv_pos_site_id
 _symmetry_equiv_pos_as_xyz
  1  'x, y, z'
loop_
 _atom_site_type_symbol
 _atom_site_label
 _atom_site_symmetry_multiplicity
 _atom_site_fract_x
 _atom_site_fract_y
 _atom_site_fract_z
 _atom_site_occupancy
  Rb  Rb1  1  0.300421  0.248657  0.589701  1
  Rb  Rb2  1  0.676712  0.728526  0.666393  1
  Rb  Rb3  1  0.046593  0.812327  0.410307  1
  Rb  Rb4  1  0.666511  0.333278  0.333627  1
  Pb  Pb5  1  0.246172  0.849191  0.274421  1
  Pb  Pb6  1  0.883969  0.770176  0.529658  1
  Pb  Pb7  1  0.463984  0.291013  0.470262  1
  Pb  Pb8  1  0.097299  0.213890  0.725643  1
  F  F9  1  0.172833  0.231513  0.664308  1
  F  F10  1  0.170246  0.831687  0.335646  1
  F  F11  1  0.116364  0.717649  0.712308  1
  F  F12  1  0.613797  0.215866  0.712202  1
  F  F13  1  0.538991  0.304206  0.408471  1
  F  F14  1  0.808678  0.756662  0.591542  1
  F  F15  1  0.860250  0.267648  0.543551  1
  F  F16  1  0.980382  0.300416  0.456342  1
  F  F17  1  0.226415  0.345189  0.287691  1
  F  F18  1  0.367369  0.760406  0.543639  1
  F  F19  1  0.729537  0.845781  0.287808  1
  F  F20  1  0.487276  0.793433  0.456482  1
