# generated using pymatgen
data_Al2Zn2S5
_symmetry_space_group_name_H-M   'P 1'
_cell_length_a   3.67430822
_cell_length_b   3.67430893
_cell_length_c   31.88753300
_cell_angle_alpha   90.00000000
_cell_angle_beta   90.00000000
_cell_angle_gamma   120.00000262
_symmetry_Int_Tables_number   1
_chemical_formula_structural   Al2Zn2S5
_chemical_formula_sum   'Al2 Zn2 S5'
_cell_volume   372.82308334
_cell_formula_units_Z   1
loop_
 _symmetry_equiv_pos_site_id
 _symmetry_equiv_pos_as_xyz
  1  'x, y, z'
loop_
 _atom_site_type_symbol
 _atom_site_label
 _atom_site_symmetry_multiplicity
 _atom_site_fract_x
 _atom_site_fract_y
 _atom_site_fract_z
 _atom_site_occupancy
  Al  Al1  1  -0.000000  0.000000  0.655645  1
  Al  Al2  1  -0.000000  -0.000000  0.344355  1
  Zn  Zn3  1  0.333333  0.666667  0.547130  1
  Zn  Zn4  1  0.333333  0.666667  0.452870  1
  S  S5  1  0.666667  0.333333  0.500000  1
  S  S6  1  -0.000000  0.000000  0.587313  1
  S  S7  1  -0.000000  0.000000  0.412687  1
  S  S8  1  0.666667  0.333333  0.686338  1
  S  S9  1  0.666667  0.333333  0.313662  1
