# generated using pymatgen
data_PbBr2
_symmetry_space_group_name_H-M   'P 1'
_cell_length_a   4.41279335
_cell_length_b   7.59527037
_cell_length_c   23.11447500
_cell_angle_alpha   90.00000000
_cell_angle_beta   90.00000000
_cell_angle_gamma   90.00000000
_symmetry_Int_Tables_number   1
_chemical_formula_structural   PbBr2
_chemical_formula_sum   'Pb2 Br4'
_cell_volume   774.71303249
_cell_formula_units_Z   2
loop_
 _symmetry_equiv_pos_site_id
 _symmetry_equiv_pos_as_xyz
  1  'x, y, z'
loop_
 _atom_site_type_symbol
 _atom_site_label
 _atom_site_symmetry_multiplicity
 _atom_site_fract_x
 _atom_site_fract_y
 _atom_site_fract_z
 _atom_site_occupancy
  Pb  Pb1  1  0.250000  0.749784  0.495008  1
  Pb  Pb2  1  0.750000  0.250217  0.504992  1
  Br  Br3  1  0.250000  0.429131  0.574886  1
  Br  Br4  1  0.750000  0.570870  0.425114  1
  Br  Br5  1  0.750000  0.901657  0.571879  1
  Br  Br6  1  0.250000  0.098343  0.428121  1
