# generated using pymatgen
data_BaV4O8
_symmetry_space_group_name_H-M   'P 1'
_cell_length_a   5.65098438
_cell_length_b   5.65098504
_cell_length_c   24.53295300
_cell_angle_alpha   90.00000000
_cell_angle_beta   90.00000000
_cell_angle_gamma   120.00000187
_symmetry_Int_Tables_number   1
_chemical_formula_structural   BaV4O8
_chemical_formula_sum   'Ba1 V4 O8'
_cell_volume   678.46697820
_cell_formula_units_Z   1
loop_
 _symmetry_equiv_pos_site_id
 _symmetry_equiv_pos_as_xyz
  1  'x, y, z'
loop_
 _atom_site_type_symbol
 _atom_site_label
 _atom_site_symmetry_multiplicity
 _atom_site_fract_x
 _atom_site_fract_y
 _atom_site_fract_z
 _atom_site_occupancy
  Ba  Ba1  1  0.000000  0.000000  0.500000  1
  V  V2  1  0.333333  0.666667  0.576015  1
  V  V3  1  0.666667  0.333333  0.576015  1
  V  V4  1  0.333333  0.666667  0.423985  1
  V  V5  1  0.666667  0.333333  0.423985  1
  O  O6  1  1.000000  0.356617  0.590803  1
  O  O7  1  0.356617  0.000000  0.590803  1
  O  O8  1  0.643383  0.643383  0.590803  1
  O  O9  1  0.000000  0.643383  0.409197  1
  O  O10  1  0.356617  0.356617  0.409197  1
  O  O11  1  0.643383  1.000000  0.409197  1
  O  O12  1  0.333333  0.666667  0.500000  1
  O  O13  1  0.666667  0.333333  0.500000  1
