# generated using pymatgen
data_Cr3Te4
_symmetry_space_group_name_H-M   'P 1'
_cell_length_a   4.01985676
_cell_length_b   4.01985639
_cell_length_c   29.26966300
_cell_angle_alpha   90.00000000
_cell_angle_beta   90.00000000
_cell_angle_gamma   120.02564780
_symmetry_Int_Tables_number   1
_chemical_formula_structural   Cr3Te4
_chemical_formula_sum   'Cr3 Te4'
_cell_volume   409.50307860
_cell_formula_units_Z   1
loop_
 _symmetry_equiv_pos_site_id
 _symmetry_equiv_pos_as_xyz
  1  'x, y, z'
loop_
 _atom_site_type_symbol
 _atom_site_label
 _atom_site_symmetry_multiplicity
 _atom_site_fract_x
 _atom_site_fract_y
 _atom_site_fract_z
 _atom_site_occupancy
  Cr  Cr1  1  -0.000000  -0.000000  0.500000  1
  Cr  Cr2  1  0.000057  -0.000057  0.611528  1
  Cr  Cr3  1  -0.000057  0.000057  0.388472  1
  Te  Te4  1  0.333466  0.666534  0.659165  1
  Te  Te5  1  0.333244  0.666756  0.445454  1
  Te  Te6  1  0.666534  0.333466  0.340835  1
  Te  Te7  1  0.666756  0.333244  0.554546  1
