# generated using pymatgen
data_AgHgSBr
_symmetry_space_group_name_H-M   'P 1'
_cell_length_a   4.45284725
_cell_length_b   9.96593344
_cell_length_c   30.04849800
_cell_angle_alpha   90.00000000
_cell_angle_beta   90.00000000
_cell_angle_gamma   90.00000000
_symmetry_Int_Tables_number   1
_chemical_formula_structural   AgHgSBr
_chemical_formula_sum   'Ag4 Hg4 S4 Br4'
_cell_volume   1333.45556440
_cell_formula_units_Z   4
loop_
 _symmetry_equiv_pos_site_id
 _symmetry_equiv_pos_as_xyz
  1  'x, y, z'
loop_
 _atom_site_type_symbol
 _atom_site_label
 _atom_site_symmetry_multiplicity
 _atom_site_fract_x
 _atom_site_fract_y
 _atom_site_fract_z
 _atom_site_occupancy
  Ag  Ag1  1  -0.000000  0.404531  0.601297  1
  Ag  Ag2  1  0.000000  0.595469  0.398703  1
  Ag  Ag3  1  0.000000  0.095469  0.601297  1
  Ag  Ag4  1  -0.000000  0.904531  0.398703  1
  Hg  Hg5  1  0.500000  0.750000  0.580094  1
  Hg  Hg6  1  0.500000  0.250000  0.419906  1
  Hg  Hg7  1  0.500000  -0.000000  0.500000  1
  Hg  Hg8  1  0.500000  0.500000  0.500000  1
  S  S9  1  0.500000  0.990220  0.580335  1
  S  S10  1  0.500000  0.009780  0.419665  1
  S  S11  1  0.500000  0.490220  0.419665  1
  S  S12  1  0.500000  0.509780  0.580335  1
  Br  Br13  1  0.000000  0.750000  0.329917  1
  Br  Br14  1  0.000000  0.750000  0.493509  1
  Br  Br15  1  0.000000  0.250000  0.506491  1
  Br  Br16  1  -0.000000  0.250000  0.670083  1
