# generated using pymatgen
data_Bi2Rh3S2
_symmetry_space_group_name_H-M   'P 1'
_cell_length_a   6.92356626
_cell_length_b   6.92356615
_cell_length_c   23.62116900
_cell_angle_alpha   90.00000000
_cell_angle_beta   90.00000000
_cell_angle_gamma   71.04074375
_symmetry_Int_Tables_number   1
_chemical_formula_structural   Bi2Rh3S2
_chemical_formula_sum   'Bi4 Rh6 S4'
_cell_volume   1070.87151755
_cell_formula_units_Z   2
loop_
 _symmetry_equiv_pos_site_id
 _symmetry_equiv_pos_as_xyz
  1  'x, y, z'
loop_
 _atom_site_type_symbol
 _atom_site_label
 _atom_site_symmetry_multiplicity
 _atom_site_fract_x
 _atom_site_fract_y
 _atom_site_fract_z
 _atom_site_occupancy
  Bi  Bi1  1  0.392105  0.392105  0.567228  1
  Bi  Bi2  1  0.888856  0.888856  0.572638  1
  Bi  Bi3  1  0.164438  0.164438  0.427362  1
  Bi  Bi4  1  0.661189  0.661189  0.432772  1
  Rh  Rh5  1  0.026647  0.526647  0.500000  1
  Rh  Rh6  1  0.828916  0.224378  0.500000  1
  Rh  Rh7  1  0.224378  0.828916  0.500000  1
  Rh  Rh8  1  0.526647  0.026647  0.500000  1
  Rh  Rh9  1  0.637179  0.637179  0.547406  1
  Rh  Rh10  1  0.416114  0.416114  0.452594  1
  S  S11  1  0.918774  0.376360  0.579385  1
  S  S12  1  0.376360  0.918774  0.579385  1
  S  S13  1  0.134519  0.676933  0.420615  1
  S  S14  1  0.676933  0.134519  0.420615  1
