# generated using pymatgen
data_TaTl(CuS2)2
_symmetry_space_group_name_H-M   'P 1'
_cell_length_a   5.63418581
_cell_length_b   7.59237553
_cell_length_c   28.97644672
_cell_angle_alpha   90.00000000
_cell_angle_beta   90.00000000
_cell_angle_gamma   90.00000000
_symmetry_Int_Tables_number   1
_chemical_formula_structural   TaTl(CuS2)2
_chemical_formula_sum   'Ta2 Tl2 Cu4 S8'
_cell_volume   1239.52124455
_cell_formula_units_Z   2
loop_
 _symmetry_equiv_pos_site_id
 _symmetry_equiv_pos_as_xyz
  1  'x, y, z'
loop_
 _atom_site_type_symbol
 _atom_site_label
 _atom_site_symmetry_multiplicity
 _atom_site_fract_x
 _atom_site_fract_y
 _atom_site_fract_z
 _atom_site_occupancy
  Ta  Ta1  1  0.000114  0.750000  0.431176  1
  Ta  Ta2  1  0.000114  0.250000  0.568824  1
  Tl  Tl3  1  0.286664  0.750000  0.329236  1
  Tl  Tl4  1  0.286664  0.250000  0.670764  1
  Cu  Cu5  1  0.498749  0.250000  0.563174  1
  Cu  Cu6  1  0.012353  0.500000  0.500000  1
  Cu  Cu7  1  0.498749  0.750000  0.436826  1
  Cu  Cu8  1  0.012353  0.000000  0.500000  1
  S  S9  1  0.244894  0.994962  0.432658  1
  S  S10  1  0.244894  0.005038  0.567342  1
  S  S11  1  0.244894  0.505038  0.432658  1
  S  S12  1  0.244894  0.494962  0.567342  1
  S  S13  1  0.757820  0.750000  0.367481  1
  S  S14  1  0.767515  0.250000  0.502443  1
  S  S15  1  0.767515  0.750000  0.497557  1
  S  S16  1  0.757820  0.250000  0.632519  1
