# generated using pymatgen
data_Li2BiO3
_symmetry_space_group_name_H-M   'P 1'
_cell_length_a   3.41717822
_cell_length_b   4.17013752
_cell_length_c   26.84088300
_cell_angle_alpha   90.00000000
_cell_angle_beta   90.00000000
_cell_angle_gamma   89.98122028
_symmetry_Int_Tables_number   1
_chemical_formula_structural   Li2BiO3
_chemical_formula_sum   'Li2 Bi1 O3'
_cell_volume   382.48532993
_cell_formula_units_Z   1
loop_
 _symmetry_equiv_pos_site_id
 _symmetry_equiv_pos_as_xyz
  1  'x, y, z'
loop_
 _atom_site_type_symbol
 _atom_site_label
 _atom_site_symmetry_multiplicity
 _atom_site_fract_x
 _atom_site_fract_y
 _atom_site_fract_z
 _atom_site_occupancy
  Li  Li1  1  0.450970  0.489139  0.617708  1
  Li  Li2  1  0.482888  0.496950  0.382641  1
  Bi  Bi3  1  0.966713  0.497559  0.500174  1
  O  O4  1  0.464101  0.497108  0.446268  1
  O  O5  1  0.466534  0.497633  0.554036  1
  O  O6  1  0.958953  0.997317  0.499174  1
