# generated using pymatgen
data_SmGa2Co
_symmetry_space_group_name_H-M   'P 1'
_cell_length_a   4.07164604
_cell_length_b   4.08576121
_cell_length_c   27.07275026
_cell_angle_alpha   90.00000000
_cell_angle_beta   90.00000000
_cell_angle_gamma   90.00000000
_symmetry_Int_Tables_number   1
_chemical_formula_structural   SmGa2Co
_chemical_formula_sum   'Sm2 Ga4 Co2'
_cell_volume   450.37614002
_cell_formula_units_Z   2
loop_
 _symmetry_equiv_pos_site_id
 _symmetry_equiv_pos_as_xyz
  1  'x, y, z'
loop_
 _atom_site_type_symbol
 _atom_site_label
 _atom_site_symmetry_multiplicity
 _atom_site_fract_x
 _atom_site_fract_y
 _atom_site_fract_z
 _atom_site_occupancy
  Sm  Sm1  1  0.500000  0.500000  0.592099  1
  Sm  Sm2  1  0.500000  0.500000  0.407901  1
  Ga  Ga3  1  -0.000000  0.500000  0.500000  1
  Ga  Ga4  1  0.500000  -0.000000  0.500000  1
  Ga  Ga5  1  -0.000000  0.000000  0.365544  1
  Ga  Ga6  1  -0.000000  0.000000  0.634456  1
  Co  Co7  1  0.000000  0.000000  0.451602  1
  Co  Co8  1  -0.000000  -0.000000  0.548398  1
