# generated using pymatgen
data_MoF4
_symmetry_space_group_name_H-M   'P 1'
_cell_length_a   5.02850634
_cell_length_b   5.30448649
_cell_length_c   22.73390300
_cell_angle_alpha   90.00000000
_cell_angle_beta   90.00000000
_cell_angle_gamma   90.01592517
_symmetry_Int_Tables_number   1
_chemical_formula_structural   MoF4
_chemical_formula_sum   'Mo2 F8'
_cell_volume   606.39601140
_cell_formula_units_Z   2
loop_
 _symmetry_equiv_pos_site_id
 _symmetry_equiv_pos_as_xyz
  1  'x, y, z'
loop_
 _atom_site_type_symbol
 _atom_site_label
 _atom_site_symmetry_multiplicity
 _atom_site_fract_x
 _atom_site_fract_y
 _atom_site_fract_z
 _atom_site_occupancy
  Mo  Mo1  1  0.028774  0.548650  0.505323  1
  Mo  Mo2  1  0.473009  0.048763  0.505260  1
  F  F3  1  0.259787  0.302740  0.455483  1
  F  F4  1  0.214420  0.277389  0.559310  1
  F  F5  1  0.781958  0.824509  0.540120  1
  F  F6  1  0.719965  0.324240  0.540285  1
  F  F7  1  0.797938  0.546013  0.439771  1
  F  F8  1  0.703344  0.046157  0.439629  1
  F  F9  1  0.241736  0.802644  0.455479  1
  F  F10  1  0.287505  0.777532  0.559340  1
