# generated using pymatgen
data_V2Ni(PO5)2
_symmetry_space_group_name_H-M   'P 1'
_cell_length_a   8.42954315
_cell_length_b   8.66400336
_cell_length_c   26.13614700
_cell_angle_alpha   90.00000000
_cell_angle_beta   90.00000000
_cell_angle_gamma   90.00000000
_symmetry_Int_Tables_number   1
_chemical_formula_structural   V2Ni(PO5)2
_chemical_formula_sum   'V4 Ni2 P4 O20'
_cell_volume   1908.81664875
_cell_formula_units_Z   2
loop_
 _symmetry_equiv_pos_site_id
 _symmetry_equiv_pos_as_xyz
  1  'x, y, z'
loop_
 _atom_site_type_symbol
 _atom_site_label
 _atom_site_symmetry_multiplicity
 _atom_site_fract_x
 _atom_site_fract_y
 _atom_site_fract_z
 _atom_site_occupancy
  V  V1  1  0.394229  0.223805  0.556496  1
  V  V2  1  0.105771  0.723805  0.443504  1
  V  V3  1  0.894229  0.276195  0.556496  1
  V  V4  1  0.605771  0.776195  0.443504  1
  Ni  Ni5  1  0.000000  -0.000000  0.500000  1
  Ni  Ni6  1  0.500000  0.500000  0.500000  1
  P  P7  1  0.778618  0.591575  0.496256  1
  P  P8  1  0.221382  0.408425  0.503744  1
  P  P9  1  0.721382  0.091575  0.503744  1
  P  P10  1  0.278618  0.908425  0.496256  1
  O  O11  1  0.826712  0.016086  0.547547  1
  O  O12  1  0.173288  0.983914  0.452453  1
  O  O13  1  0.326712  0.483914  0.547547  1
  O  O14  1  0.374155  0.013050  0.530257  1
  O  O15  1  0.399323  0.221975  0.617759  1
  O  O16  1  0.600677  0.778025  0.382241  1
  O  O17  1  0.636993  0.672735  0.524472  1
  O  O18  1  0.625845  0.986950  0.469743  1
  O  O19  1  0.136993  0.827265  0.524472  1
  O  O20  1  0.870187  0.722795  0.467183  1
  O  O21  1  0.363007  0.327265  0.475528  1
  O  O22  1  0.129813  0.277205  0.532817  1
  O  O23  1  0.673288  0.516086  0.452453  1
  O  O24  1  0.874155  0.486950  0.530257  1
  O  O25  1  0.100677  0.721975  0.382241  1
  O  O26  1  0.899323  0.278025  0.617759  1
  O  O27  1  0.125845  0.513050  0.469743  1
  O  O28  1  0.370187  0.777205  0.467183  1
  O  O29  1  0.863007  0.172735  0.475528  1
  O  O30  1  0.629813  0.222795  0.532817  1
