# generated using pymatgen
data_LiCuO2
_symmetry_space_group_name_H-M   'P 1'
_cell_length_a   2.71558888
_cell_length_b   5.69163398
_cell_length_c   24.83212300
_cell_angle_alpha   90.00000000
_cell_angle_beta   90.00000000
_cell_angle_gamma   76.19845229
_symmetry_Int_Tables_number   1
_chemical_formula_structural   LiCuO2
_chemical_formula_sum   'Li2 Cu2 O4'
_cell_volume   372.72733027
_cell_formula_units_Z   2
loop_
 _symmetry_equiv_pos_site_id
 _symmetry_equiv_pos_as_xyz
  1  'x, y, z'
loop_
 _atom_site_type_symbol
 _atom_site_label
 _atom_site_symmetry_multiplicity
 _atom_site_fract_x
 _atom_site_fract_y
 _atom_site_fract_z
 _atom_site_occupancy
  Li  Li1  1  0.804609  0.390784  0.540938  1
  Li  Li2  1  0.950481  0.099037  0.454476  1
  Cu  Cu3  1  0.177253  0.645493  0.442530  1
  Cu  Cu4  1  0.045552  0.908895  0.559237  1
  O  O5  1  0.438573  0.122854  0.538866  1
  O  O6  1  0.649931  0.700137  0.575374  1
  O  O7  1  0.568228  0.863542  0.428632  1
  O  O8  1  0.781197  0.437605  0.459947  1
