# generated using pymatgen
data_LiCu2F5
_symmetry_space_group_name_H-M   'P 1'
_cell_length_a   3.14119567
_cell_length_b   9.64231568
_cell_length_c   26.23904200
_cell_angle_alpha   90.00000000
_cell_angle_beta   90.00000000
_cell_angle_gamma   90.00000000
_symmetry_Int_Tables_number   1
_chemical_formula_structural   LiCu2F5
_chemical_formula_sum   'Li2 Cu4 F10'
_cell_volume   794.73860661
_cell_formula_units_Z   2
loop_
 _symmetry_equiv_pos_site_id
 _symmetry_equiv_pos_as_xyz
  1  'x, y, z'
loop_
 _atom_site_type_symbol
 _atom_site_label
 _atom_site_symmetry_multiplicity
 _atom_site_fract_x
 _atom_site_fract_y
 _atom_site_fract_z
 _atom_site_occupancy
  Li  Li1  1  0.678194  0.250000  0.382631  1
  Li  Li2  1  0.321806  0.750000  0.617369  1
  Cu  Cu3  1  0.209180  0.413909  0.460862  1
  Cu  Cu4  1  0.209180  0.086091  0.460862  1
  Cu  Cu5  1  0.790820  0.913909  0.539138  1
  Cu  Cu6  1  0.790820  0.586091  0.539138  1
  F  F7  1  0.596209  0.250000  0.464378  1
  F  F8  1  0.779642  0.939823  0.465714  1
  F  F9  1  0.779642  0.560177  0.465714  1
  F  F10  1  0.171761  0.382885  0.390799  1
  F  F11  1  0.171761  0.117115  0.390799  1
  F  F12  1  0.828239  0.882885  0.609201  1
  F  F13  1  0.828239  0.617115  0.609201  1
  F  F14  1  0.220358  0.439823  0.534286  1
  F  F15  1  0.220358  0.060177  0.534286  1
  F  F16  1  0.403791  0.750000  0.535622  1
