# generated using pymatgen
data_DyCl3
_symmetry_space_group_name_H-M   'P 1'
_cell_length_a   3.77236959
_cell_length_b   8.47046097
_cell_length_c   23.94435400
_cell_angle_alpha   90.00000000
_cell_angle_beta   90.00000000
_cell_angle_gamma   90.00000000
_symmetry_Int_Tables_number   1
_chemical_formula_structural   DyCl3
_chemical_formula_sum   'Dy2 Cl6'
_cell_volume   765.11092892
_cell_formula_units_Z   2
loop_
 _symmetry_equiv_pos_site_id
 _symmetry_equiv_pos_as_xyz
  1  'x, y, z'
loop_
 _atom_site_type_symbol
 _atom_site_label
 _atom_site_symmetry_multiplicity
 _atom_site_fract_x
 _atom_site_fract_y
 _atom_site_fract_z
 _atom_site_occupancy
  Dy  Dy1  1  0.500000  0.500000  0.505128  1
  Dy  Dy2  1  0.000000  -0.000000  0.494872  1
  Cl  Cl3  1  -0.000000  0.500000  0.582613  1
  Cl  Cl4  1  0.500000  -0.000000  0.417387  1
  Cl  Cl5  1  0.500000  0.182366  0.550880  1
  Cl  Cl6  1  -0.000000  0.317634  0.449120  1
  Cl  Cl7  1  0.000000  0.682366  0.449120  1
  Cl  Cl8  1  0.500000  0.817634  0.550880  1
