# generated using pymatgen
data_Mn(CoO3)2
_symmetry_space_group_name_H-M   'P 1'
_cell_length_a   5.08284697
_cell_length_b   5.09356739
_cell_length_c   21.90310000
_cell_angle_alpha   90.00000000
_cell_angle_beta   90.00000000
_cell_angle_gamma   119.93040860
_symmetry_Int_Tables_number   1
_chemical_formula_structural   Mn(CoO3)2
_chemical_formula_sum   'Mn1 Co2 O6'
_cell_volume   491.43878670
_cell_formula_units_Z   1
loop_
 _symmetry_equiv_pos_site_id
 _symmetry_equiv_pos_as_xyz
  1  'x, y, z'
loop_
 _atom_site_type_symbol
 _atom_site_label
 _atom_site_symmetry_multiplicity
 _atom_site_fract_x
 _atom_site_fract_y
 _atom_site_fract_z
 _atom_site_occupancy
  Mn  Mn1  1  -0.000000  0.000000  0.500000  1
  Co  Co2  1  0.333739  0.667477  0.500000  1
  Co  Co3  1  0.666262  0.332523  0.500000  1
  O  O4  1  0.673074  1.000000  0.455293  1
  O  O5  1  0.326926  0.000000  0.544707  1
  O  O6  1  0.672911  0.673444  0.544525  1
  O  O7  1  0.000533  0.673444  0.455475  1
  O  O8  1  0.327089  0.326556  0.455475  1
  O  O9  1  0.999467  0.326556  0.544525  1
