# generated using pymatgen
data_ZrGeTe4
_symmetry_space_group_name_H-M   'P 1'
_cell_length_a   4.02278460
_cell_length_b   11.13653328
_cell_length_c   27.55183100
_cell_angle_alpha   90.00000000
_cell_angle_beta   90.00000000
_cell_angle_gamma   90.00000000
_symmetry_Int_Tables_number   1
_chemical_formula_structural   ZrGeTe4
_chemical_formula_sum   'Zr2 Ge2 Te8'
_cell_volume   1234.31857314
_cell_formula_units_Z   2
loop_
 _symmetry_equiv_pos_site_id
 _symmetry_equiv_pos_as_xyz
  1  'x, y, z'
loop_
 _atom_site_type_symbol
 _atom_site_label
 _atom_site_symmetry_multiplicity
 _atom_site_fract_x
 _atom_site_fract_y
 _atom_site_fract_z
 _atom_site_occupancy
  Zr  Zr1  1  0.500000  0.274426  0.557820  1
  Zr  Zr2  1  -0.000000  0.774426  0.442180  1
  Ge  Ge3  1  0.500000  0.464716  0.486978  1
  Ge  Ge4  1  -0.000000  0.964716  0.513022  1
  Te  Te5  1  0.500000  0.740753  0.363575  1
  Te  Te6  1  0.000000  0.240753  0.636425  1
  Te  Te7  1  0.500000  0.961327  0.410086  1
  Te  Te8  1  0.000000  0.461327  0.589914  1
  Te  Te9  1  0.500000  0.698616  0.516274  1
  Te  Te10  1  -0.000000  0.198616  0.483726  1
  Te  Te11  1  0.000000  0.499162  0.421763  1
  Te  Te12  1  0.500000  0.999162  0.578237  1
