# generated using pymatgen
data_Ho2CF2
_symmetry_space_group_name_H-M   'P 1'
_cell_length_a   3.54412595
_cell_length_b   3.54412616
_cell_length_c   25.38953314
_cell_angle_alpha   90.00000000
_cell_angle_beta   90.00000000
_cell_angle_gamma   120.00000663
_symmetry_Int_Tables_number   1
_chemical_formula_structural   Ho2CF2
_chemical_formula_sum   'Ho2 C1 F2'
_cell_volume   276.18725757
_cell_formula_units_Z   1
loop_
 _symmetry_equiv_pos_site_id
 _symmetry_equiv_pos_as_xyz
  1  'x, y, z'
loop_
 _atom_site_type_symbol
 _atom_site_label
 _atom_site_symmetry_multiplicity
 _atom_site_fract_x
 _atom_site_fract_y
 _atom_site_fract_z
 _atom_site_occupancy
  Ho  Ho1  1  0.333333  0.666667  0.446260  1
  Ho  Ho2  1  0.666667  0.333333  0.553740  1
  C  C3  1  -0.000000  -0.000000  0.500000  1
  F  F4  1  0.666667  0.333333  0.400357  1
  F  F5  1  0.333333  0.666667  0.599643  1
