# generated using pymatgen
data_Al2ZnS4
_symmetry_space_group_name_H-M   'P 1'
_cell_length_a   3.68195826
_cell_length_b   3.68195866
_cell_length_c   28.96219200
_cell_angle_alpha   90.00000000
_cell_angle_beta   90.00000000
_cell_angle_gamma   59.99999459
_symmetry_Int_Tables_number   1
_chemical_formula_structural   Al2ZnS4
_chemical_formula_sum   'Al2 Zn1 S4'
_cell_volume   340.03201187
_cell_formula_units_Z   1
loop_
 _symmetry_equiv_pos_site_id
 _symmetry_equiv_pos_as_xyz
  1  'x, y, z'
loop_
 _atom_site_type_symbol
 _atom_site_label
 _atom_site_symmetry_multiplicity
 _atom_site_fract_x
 _atom_site_fract_y
 _atom_site_fract_z
 _atom_site_occupancy
  Al  Al1  1  0.333333  0.333333  0.620949  1
  Al  Al2  1  0.666667  0.666667  0.379050  1
  Zn  Zn3  1  -0.000000  -0.000000  0.500015  1
  S  S4  1  -0.000000  -0.000000  0.345367  1
  S  S5  1  -0.000000  -0.000000  0.654612  1
  S  S6  1  0.666667  0.666667  0.454235  1
  S  S7  1  0.333333  0.333333  0.545773  1
