# generated using pymatgen
data_FeBiSbS4
_symmetry_space_group_name_H-M   'P 1'
_cell_length_a   3.52986205
_cell_length_b   11.16010887
_cell_length_c   28.84710000
_cell_angle_alpha   90.00000000
_cell_angle_beta   90.00000000
_cell_angle_gamma   90.00000000
_symmetry_Int_Tables_number   1
_chemical_formula_structural   FeBiSbS4
_chemical_formula_sum   'Fe2 Bi2 Sb2 S8'
_cell_volume   1136.39241016
_cell_formula_units_Z   2
loop_
 _symmetry_equiv_pos_site_id
 _symmetry_equiv_pos_as_xyz
  1  'x, y, z'
loop_
 _atom_site_type_symbol
 _atom_site_label
 _atom_site_symmetry_multiplicity
 _atom_site_fract_x
 _atom_site_fract_y
 _atom_site_fract_z
 _atom_site_occupancy
  Fe  Fe1  1  -0.000000  0.319206  0.536377  1
  Fe  Fe2  1  -0.000000  0.819206  0.463623  1
  Bi  Bi3  1  0.500000  0.520555  0.424144  1
  Bi  Bi4  1  0.500000  0.020555  0.575856  1
  Sb  Sb5  1  0.500000  0.404944  0.637978  1
  Sb  Sb6  1  0.500000  0.904944  0.362022  1
  S  S7  1  0.500000  0.953207  0.444168  1
  S  S8  1  -0.000000  0.243921  0.614478  1
  S  S9  1  0.500000  0.696258  0.483915  1
  S  S10  1  -0.000000  0.743921  0.385522  1
  S  S11  1  0.000000  0.373599  0.462060  1
  S  S12  1  0.500000  0.196258  0.516085  1
  S  S13  1  0.500000  0.453207  0.555832  1
  S  S14  1  0.000000  0.873599  0.537940  1
