# generated using pymatgen
data_Mg2Ti
_symmetry_space_group_name_H-M   'P 1'
_cell_length_a   2.98554715
_cell_length_b   4.94185933
_cell_length_c   27.06187600
_cell_angle_alpha   90.00000000
_cell_angle_beta   90.00000000
_cell_angle_gamma   90.00000000
_symmetry_Int_Tables_number   1
_chemical_formula_structural   Mg2Ti
_chemical_formula_sum   'Mg4 Ti2'
_cell_volume   399.27508707
_cell_formula_units_Z   2
loop_
 _symmetry_equiv_pos_site_id
 _symmetry_equiv_pos_as_xyz
  1  'x, y, z'
loop_
 _atom_site_type_symbol
 _atom_site_label
 _atom_site_symmetry_multiplicity
 _atom_site_fract_x
 _atom_site_fract_y
 _atom_site_fract_z
 _atom_site_occupancy
  Mg  Mg1  1  0.500000  0.250000  0.624254  1
  Mg  Mg2  1  0.500000  0.750000  0.564505  1
  Mg  Mg3  1  0.500000  0.250000  0.435495  1
  Mg  Mg4  1  0.500000  0.750000  0.375746  1
  Ti  Ti5  1  -0.000000  0.250000  0.529923  1
  Ti  Ti6  1  0.000000  0.750000  0.470077  1
