# generated using pymatgen
data_BaFeS
_symmetry_space_group_name_H-M   'P 1'
_cell_length_a   3.80191573
_cell_length_b   3.80191573
_cell_length_c   25.64940100
_cell_angle_alpha   90.00000000
_cell_angle_beta   90.00000000
_cell_angle_gamma   90.00000000
_symmetry_Int_Tables_number   1
_chemical_formula_structural   BaFeS
_chemical_formula_sum   'Ba2 Fe2 S2'
_cell_volume   370.75088826
_cell_formula_units_Z   2
loop_
 _symmetry_equiv_pos_site_id
 _symmetry_equiv_pos_as_xyz
  1  'x, y, z'
loop_
 _atom_site_type_symbol
 _atom_site_label
 _atom_site_symmetry_multiplicity
 _atom_site_fract_x
 _atom_site_fract_y
 _atom_site_fract_z
 _atom_site_occupancy
  Ba  Ba1  1  0.000000  0.500000  0.609194  1
  Ba  Ba2  1  0.500000  0.000000  0.390806  1
  Fe  Fe3  1  0.500000  0.500000  0.500000  1
  Fe  Fe4  1  -0.000000  0.000000  0.500000  1
  S  S5  1  -0.000000  0.500000  0.454072  1
  S  S6  1  0.500000  0.000000  0.545928  1
