# generated using pymatgen
data_Au3F8
_symmetry_space_group_name_H-M   'P 1'
_cell_length_a   7.64344836
_cell_length_b   10.73344860
_cell_length_c   23.41700700
_cell_angle_alpha   90.00000000
_cell_angle_beta   90.00000000
_cell_angle_gamma   90.00000000
_symmetry_Int_Tables_number   1
_chemical_formula_structural   Au3F8
_chemical_formula_sum   'Au6 F16'
_cell_volume   1921.14437012
_cell_formula_units_Z   2
loop_
 _symmetry_equiv_pos_site_id
 _symmetry_equiv_pos_as_xyz
  1  'x, y, z'
loop_
 _atom_site_type_symbol
 _atom_site_label
 _atom_site_symmetry_multiplicity
 _atom_site_fract_x
 _atom_site_fract_y
 _atom_site_fract_z
 _atom_site_occupancy
  Au  Au1  1  0.542081  0.677252  0.523469  1
  Au  Au2  1  0.835567  0.177252  0.476531  1
  Au  Au3  1  0.335567  0.322748  0.476531  1
  Au  Au4  1  0.042081  0.822748  0.523469  1
  Au  Au5  1  0.438824  0.000000  0.500000  1
  Au  Au6  1  0.938824  0.500000  0.500000  1
  F  F7  1  0.498647  0.519427  0.560495  1
  F  F8  1  0.879001  0.019427  0.439505  1
  F  F9  1  0.379001  0.480573  0.439505  1
  F  F10  1  0.998647  0.980573  0.560495  1
  F  F11  1  0.663054  0.095917  0.529817  1
  F  F12  1  0.714593  0.595917  0.470183  1
  F  F13  1  0.098749  0.659816  0.485273  1
  F  F14  1  0.278899  0.159816  0.514727  1
  F  F15  1  0.778899  0.340184  0.514727  1
  F  F16  1  0.598749  0.840184  0.485273  1
  F  F17  1  0.875151  0.734077  0.571016  1
  F  F18  1  0.502497  0.234077  0.428984  1
  F  F19  1  0.002497  0.265923  0.428984  1
  F  F20  1  0.375151  0.765923  0.571016  1
  F  F21  1  0.163054  0.404083  0.529817  1
  F  F22  1  0.214593  0.904083  0.470183  1
