# generated using pymatgen
data_DySI
_symmetry_space_group_name_H-M   'P 1'
_cell_length_a   4.17108668
_cell_length_b   5.31303842
_cell_length_c   26.69285390
_cell_angle_alpha   90.00000000
_cell_angle_beta   90.00000000
_cell_angle_gamma   90.00000000
_symmetry_Int_Tables_number   1
_chemical_formula_structural   DySI
_chemical_formula_sum   'Dy2 S2 I2'
_cell_volume   591.54417328
_cell_formula_units_Z   2
loop_
 _symmetry_equiv_pos_site_id
 _symmetry_equiv_pos_as_xyz
  1  'x, y, z'
loop_
 _atom_site_type_symbol
 _atom_site_label
 _atom_site_symmetry_multiplicity
 _atom_site_fract_x
 _atom_site_fract_y
 _atom_site_fract_z
 _atom_site_occupancy
  Dy  Dy1  1  -0.000000  -0.000000  0.542990  1
  Dy  Dy2  1  0.500000  0.500000  0.457010  1
  S  S3  1  0.500000  0.000000  0.476561  1
  S  S4  1  0.000000  0.500000  0.523439  1
  I  I5  1  0.000000  0.500000  0.374192  1
  I  I6  1  0.500000  -0.000000  0.625808  1
