# generated using pymatgen
data_MnPS3
_symmetry_space_group_name_H-M   'P 1'
_cell_length_a   6.07424630
_cell_length_b   6.07385558
_cell_length_c   23.24565300
_cell_angle_alpha   90.00000000
_cell_angle_beta   90.00000000
_cell_angle_gamma   59.99787745
_symmetry_Int_Tables_number   1
_chemical_formula_structural   MnPS3
_chemical_formula_sum   'Mn2 P2 S6'
_cell_volume   742.71116394
_cell_formula_units_Z   2
loop_
 _symmetry_equiv_pos_site_id
 _symmetry_equiv_pos_as_xyz
  1  'x, y, z'
loop_
 _atom_site_type_symbol
 _atom_site_label
 _atom_site_symmetry_multiplicity
 _atom_site_fract_x
 _atom_site_fract_y
 _atom_site_fract_z
 _atom_site_occupancy
  Mn  Mn1  1  0.666726  0.666548  0.500000  1
  Mn  Mn2  1  0.333274  0.333452  0.500000  1
  P  P3  1  0.000126  0.000000  0.452404  1
  P  P4  1  0.999874  1.000000  0.547596  1
  S  S5  1  0.000130  0.325979  0.430164  1
  S  S6  1  0.673891  0.325979  0.569836  1
  S  S7  1  0.326042  1.000000  0.569824  1
  S  S8  1  0.673958  0.000000  0.430176  1
  S  S9  1  0.999870  0.674021  0.569836  1
  S  S10  1  0.326109  0.674021  0.430164  1
