# generated using pymatgen
data_Li2V(CO3)2
_symmetry_space_group_name_H-M   'P 1'
_cell_length_a   4.88608203
_cell_length_b   4.88608232
_cell_length_c   24.22492100
_cell_angle_alpha   90.00000000
_cell_angle_beta   90.00000000
_cell_angle_gamma   59.99999518
_symmetry_Int_Tables_number   1
_chemical_formula_structural   Li2V(CO3)2
_chemical_formula_sum   'Li2 V1 C2 O6'
_cell_volume   500.85788258
_cell_formula_units_Z   1
loop_
 _symmetry_equiv_pos_site_id
 _symmetry_equiv_pos_as_xyz
  1  'x, y, z'
loop_
 _atom_site_type_symbol
 _atom_site_label
 _atom_site_symmetry_multiplicity
 _atom_site_fract_x
 _atom_site_fract_y
 _atom_site_fract_z
 _atom_site_occupancy
  Li  Li1  1  0.666667  0.666667  0.430596  1
  Li  Li2  1  0.333333  0.333333  0.569404  1
  V  V3  1  0.000000  -0.000000  0.500000  1
  C  C4  1  0.666667  0.666667  0.553486  1
  C  C5  1  0.333333  0.333333  0.446514  1
  O  O6  1  0.607028  0.077027  0.446810  1
  O  O7  1  0.684056  0.392972  0.553190  1
  O  O8  1  0.922973  0.684056  0.553190  1
  O  O9  1  0.077027  0.315944  0.446810  1
  O  O10  1  0.315944  0.607028  0.446810  1
  O  O11  1  0.392972  0.922973  0.553190  1
