# generated using pymatgen
data_Mg(ReO4)2
_symmetry_space_group_name_H-M   'P 1'
_cell_length_a   5.78405487
_cell_length_b   5.78405427
_cell_length_c   26.86560626
_cell_angle_alpha   90.00000000
_cell_angle_beta   90.00000000
_cell_angle_gamma   119.99999786
_symmetry_Int_Tables_number   1
_chemical_formula_structural   Mg(ReO4)2
_chemical_formula_sum   'Mg1 Re2 O8'
_cell_volume   778.38068399
_cell_formula_units_Z   1
loop_
 _symmetry_equiv_pos_site_id
 _symmetry_equiv_pos_as_xyz
  1  'x, y, z'
loop_
 _atom_site_type_symbol
 _atom_site_label
 _atom_site_symmetry_multiplicity
 _atom_site_fract_x
 _atom_site_fract_y
 _atom_site_fract_z
 _atom_site_occupancy
  Mg  Mg1  1  -0.000000  -0.000000  0.500000  1
  Re  Re2  1  0.333333  0.666667  0.565684  1
  Re  Re3  1  0.666667  0.333333  0.434316  1
  O  O4  1  0.663260  0.797547  0.544089  1
  O  O5  1  0.202453  0.865713  0.544089  1
  O  O6  1  0.333333  0.666667  0.629963  1
  O  O7  1  0.865713  0.663260  0.455911  1
  O  O8  1  0.134287  0.336740  0.544089  1
  O  O9  1  0.666667  0.333333  0.370037  1
  O  O10  1  0.797547  0.134287  0.455911  1
  O  O11  1  0.336740  0.202453  0.455911  1
