# generated using pymatgen
data_InBrO
_symmetry_space_group_name_H-M   'P 1'
_cell_length_a   3.66368105
_cell_length_b   4.09955061
_cell_length_c   25.97865100
_cell_angle_alpha   90.00000000
_cell_angle_beta   90.00000000
_cell_angle_gamma   90.00000000
_symmetry_Int_Tables_number   1
_chemical_formula_structural   InBrO
_chemical_formula_sum   'In2 Br2 O2'
_cell_volume   390.18494282
_cell_formula_units_Z   2
loop_
 _symmetry_equiv_pos_site_id
 _symmetry_equiv_pos_as_xyz
  1  'x, y, z'
loop_
 _atom_site_type_symbol
 _atom_site_label
 _atom_site_symmetry_multiplicity
 _atom_site_fract_x
 _atom_site_fract_y
 _atom_site_fract_z
 _atom_site_occupancy
  In  In1  1  0.500000  0.500000  0.461087  1
  In  In2  1  0.000000  -0.000000  0.538913  1
  Br  Br3  1  0.000000  0.500000  0.385195  1
  Br  Br4  1  0.500000  -0.000000  0.614805  1
  O  O5  1  0.000000  0.500000  0.512630  1
  O  O6  1  0.500000  -0.000000  0.487370  1
