# generated using pymatgen
data_NaSnN
_symmetry_space_group_name_H-M   'P 1'
_cell_length_a   3.42813406
_cell_length_b   3.42813424
_cell_length_c   22.57209828
_cell_angle_alpha   90.00000000
_cell_angle_beta   90.00000000
_cell_angle_gamma   119.99999827
_symmetry_Int_Tables_number   1
_chemical_formula_structural   NaSnN
_chemical_formula_sum   'Na1 Sn1 N1'
_cell_volume   229.73025174
_cell_formula_units_Z   1
loop_
 _symmetry_equiv_pos_site_id
 _symmetry_equiv_pos_as_xyz
  1  'x, y, z'
loop_
 _atom_site_type_symbol
 _atom_site_label
 _atom_site_symmetry_multiplicity
 _atom_site_fract_x
 _atom_site_fract_y
 _atom_site_fract_z
 _atom_site_occupancy
  Na  Na1  1  0.666667  0.333333  0.444226  1
  Sn  Sn2  1  0.333333  0.666667  0.554295  1
  N  N3  1  0.000000  -0.000000  0.501479  1
