# generated using pymatgen
data_Si3Bi2O9
_symmetry_space_group_name_H-M   'P 1'
_cell_length_a   7.02873536
_cell_length_b   7.02873547
_cell_length_c   24.32568376
_cell_angle_alpha   90.00000000
_cell_angle_beta   90.00000000
_cell_angle_gamma   119.99999949
_symmetry_Int_Tables_number   1
_chemical_formula_structural   Si3Bi2O9
_chemical_formula_sum   'Si3 Bi2 O9'
_cell_volume   1040.75877465
_cell_formula_units_Z   1
loop_
 _symmetry_equiv_pos_site_id
 _symmetry_equiv_pos_as_xyz
  1  'x, y, z'
loop_
 _atom_site_type_symbol
 _atom_site_label
 _atom_site_symmetry_multiplicity
 _atom_site_fract_x
 _atom_site_fract_y
 _atom_site_fract_z
 _atom_site_occupancy
  Si  Si1  1  0.715486  0.601456  0.500000  1
  Si  Si2  1  0.885970  0.284514  0.500000  1
  Si  Si3  1  0.398544  0.114030  0.500000  1
  Bi  Bi4  1  -0.000000  -0.000000  0.402555  1
  Bi  Bi5  1  -0.000000  -0.000000  0.597445  1
  O  O6  1  0.002562  0.260544  0.555868  1
  O  O7  1  0.739456  0.742018  0.444132  1
  O  O8  1  0.903395  0.525947  0.500000  1
  O  O9  1  0.474053  0.377448  0.500000  1
  O  O10  1  0.622552  0.096605  0.500000  1
  O  O11  1  0.257982  0.997438  0.555868  1
  O  O12  1  0.257982  0.997438  0.444132  1
  O  O13  1  0.739456  0.742018  0.555868  1
  O  O14  1  0.002562  0.260544  0.444132  1
