# generated using pymatgen
data_SrSbSe2F
_symmetry_space_group_name_H-M   'P 1'
_cell_length_a   4.09937732
_cell_length_b   4.09937732
_cell_length_c   31.43308100
_cell_angle_alpha   90.00000000
_cell_angle_beta   90.00000000
_cell_angle_gamma   90.00000000
_symmetry_Int_Tables_number   1
_chemical_formula_structural   SrSbSe2F
_chemical_formula_sum   'Sr2 Sb2 Se4 F2'
_cell_volume   528.22960724
_cell_formula_units_Z   2
loop_
 _symmetry_equiv_pos_site_id
 _symmetry_equiv_pos_as_xyz
  1  'x, y, z'
loop_
 _atom_site_type_symbol
 _atom_site_label
 _atom_site_symmetry_multiplicity
 _atom_site_fract_x
 _atom_site_fract_y
 _atom_site_fract_z
 _atom_site_occupancy
  Sr  Sr1  1  -0.000000  0.500000  0.453780  1
  Sr  Sr2  1  0.500000  -0.000000  0.546220  1
  Sb  Sb3  1  -0.000000  0.500000  0.669819  1
  Sb  Sb4  1  0.500000  0.000000  0.330181  1
  Se  Se5  1  0.500000  0.000000  0.411298  1
  Se  Se6  1  0.500000  0.000000  0.682085  1
  Se  Se7  1  -0.000000  0.500000  0.317915  1
  Se  Se8  1  -0.000000  0.500000  0.588702  1
  F  F9  1  -0.000000  -0.000000  0.500000  1
  F  F10  1  0.500000  0.500000  0.500000  1
