# generated using pymatgen
data_LuTe3
_symmetry_space_group_name_H-M   'P 1'
_cell_length_a   4.32468109
_cell_length_b   4.32367575
_cell_length_c   28.94832900
_cell_angle_alpha   90.00000000
_cell_angle_beta   90.00000000
_cell_angle_gamma   90.00000000
_symmetry_Int_Tables_number   1
_chemical_formula_structural   LuTe3
_chemical_formula_sum   'Lu2 Te6'
_cell_volume   541.29087274
_cell_formula_units_Z   2
loop_
 _symmetry_equiv_pos_site_id
 _symmetry_equiv_pos_as_xyz
  1  'x, y, z'
loop_
 _atom_site_type_symbol
 _atom_site_label
 _atom_site_symmetry_multiplicity
 _atom_site_fract_x
 _atom_site_fract_y
 _atom_site_fract_z
 _atom_site_occupancy
  Lu  Lu1  1  0.500000  -0.000000  0.569630  1
  Lu  Lu2  1  -0.000000  0.500000  0.430370  1
  Te  Te3  1  -0.000000  -0.000000  0.345278  1
  Te  Te4  1  0.500000  0.500000  0.654722  1
  Te  Te5  1  0.000000  0.000000  0.654685  1
  Te  Te6  1  0.500000  0.500000  0.345315  1
  Te  Te7  1  0.500000  0.000000  0.461469  1
  Te  Te8  1  0.000000  0.500000  0.538531  1
