# generated using pymatgen
data_ZrAl5Ni2
_symmetry_space_group_name_H-M   'P 1'
_cell_length_a   4.11676136
_cell_length_b   4.11676136
_cell_length_c   26.98770600
_cell_angle_alpha   90.00000000
_cell_angle_beta   90.00000000
_cell_angle_gamma   90.00000000
_symmetry_Int_Tables_number   1
_chemical_formula_structural   ZrAl5Ni2
_chemical_formula_sum   'Zr1 Al5 Ni2'
_cell_volume   457.38019525
_cell_formula_units_Z   1
loop_
 _symmetry_equiv_pos_site_id
 _symmetry_equiv_pos_as_xyz
  1  'x, y, z'
loop_
 _atom_site_type_symbol
 _atom_site_label
 _atom_site_symmetry_multiplicity
 _atom_site_fract_x
 _atom_site_fract_y
 _atom_site_fract_z
 _atom_site_occupancy
  Zr  Zr1  1  -0.000000  -0.000000  0.500000  1
  Al  Al2  1  0.500000  0.500000  0.500000  1
  Al  Al3  1  0.500000  0.000000  0.421005  1
  Al  Al4  1  0.000000  0.500000  0.421005  1
  Al  Al5  1  0.500000  0.000000  0.578995  1
  Al  Al6  1  0.000000  0.500000  0.578995  1
  Ni  Ni7  1  -0.000000  -0.000000  0.381800  1
  Ni  Ni8  1  -0.000000  -0.000000  0.618200  1
