# generated using pymatgen
data_Mg2Mo3O8
_symmetry_space_group_name_H-M   'P 1'
_cell_length_a   5.48995034
_cell_length_b   6.17555821
_cell_length_c   24.43916000
_cell_angle_alpha   90.00000000
_cell_angle_beta   90.00000000
_cell_angle_gamma   90.00000000
_symmetry_Int_Tables_number   1
_chemical_formula_structural   Mg2Mo3O8
_chemical_formula_sum   'Mg2 Mo3 O8'
_cell_volume   828.57325400
_cell_formula_units_Z   1
loop_
 _symmetry_equiv_pos_site_id
 _symmetry_equiv_pos_as_xyz
  1  'x, y, z'
loop_
 _atom_site_type_symbol
 _atom_site_label
 _atom_site_symmetry_multiplicity
 _atom_site_fract_x
 _atom_site_fract_y
 _atom_site_fract_z
 _atom_site_occupancy
  Mg  Mg1  1  0.286860  0.000000  0.564146  1
  Mg  Mg2  1  0.274584  0.000000  0.435854  1
  Mo  Mo3  1  0.280722  0.500000  0.500000  1
  Mo  Mo4  1  0.780722  0.244879  0.500000  1
  Mo  Mo5  1  0.780722  0.755121  0.500000  1
  O  O6  1  0.926454  0.000000  0.451578  1
  O  O7  1  0.634990  0.000000  0.548422  1
  O  O8  1  0.941777  0.500000  0.458050  1
  O  O9  1  0.619666  0.500000  0.541950  1
  O  O10  1  0.110560  0.741765  0.543777  1
  O  O11  1  0.110560  0.258235  0.543777  1
  O  O12  1  0.450884  0.741765  0.456223  1
  O  O13  1  0.450884  0.258235  0.456223  1
