# generated using pymatgen
data_KHCO2
_symmetry_space_group_name_H-M   'P 1'
_cell_length_a   5.81494128
_cell_length_b   7.41883972
_cell_length_c   18.44985940
_cell_angle_alpha   90.00000000
_cell_angle_beta   90.00000000
_cell_angle_gamma   90.00000000
_symmetry_Int_Tables_number   1
_chemical_formula_structural   KHCO2
_chemical_formula_sum   'K2 H2 C2 O4'
_cell_volume   795.92909938
_cell_formula_units_Z   2
loop_
 _symmetry_equiv_pos_site_id
 _symmetry_equiv_pos_as_xyz
  1  'x, y, z'
loop_
 _atom_site_type_symbol
 _atom_site_label
 _atom_site_symmetry_multiplicity
 _atom_site_fract_x
 _atom_site_fract_y
 _atom_site_fract_z
 _atom_site_occupancy
  K  K1  1  0.000000  0.500000  0.500000  1
  K  K2  1  -0.000000  0.000000  0.500000  1
  H  H3  1  0.500000  0.750000  0.450521  1
  H  H4  1  0.500000  0.250000  0.549479  1
  C  C5  1  0.500000  0.750000  0.511664  1
  C  C6  1  0.500000  0.250000  0.488336  1
  O  O7  1  0.695632  0.750000  0.541343  1
  O  O8  1  0.695632  0.250000  0.458657  1
  O  O9  1  0.304368  0.250000  0.458657  1
  O  O10  1  0.304368  0.750000  0.541343  1
