# generated using pymatgen
data_YBrO
_symmetry_space_group_name_H-M   'P 1'
_cell_length_a   3.84499032
_cell_length_b   3.84498983
_cell_length_c   26.73854400
_cell_angle_alpha   90.00000000
_cell_angle_beta   90.00000000
_cell_angle_gamma   59.99999579
_symmetry_Int_Tables_number   1
_chemical_formula_structural   YBrO
_chemical_formula_sum   'Y2 Br2 O2'
_cell_volume   342.34092080
_cell_formula_units_Z   2
loop_
 _symmetry_equiv_pos_site_id
 _symmetry_equiv_pos_as_xyz
  1  'x, y, z'
loop_
 _atom_site_type_symbol
 _atom_site_label
 _atom_site_symmetry_multiplicity
 _atom_site_fract_x
 _atom_site_fract_y
 _atom_site_fract_z
 _atom_site_occupancy
  Y  Y1  1  0.333333  0.333333  0.553723  1
  Y  Y2  1  0.666667  0.666667  0.446277  1
  Br  Br3  1  0.000000  0.000000  0.374181  1
  Br  Br4  1  -0.000000  0.000000  0.625819  1
  O  O5  1  0.333333  0.333333  0.467790  1
  O  O6  1  0.666667  0.666667  0.532210  1
