# generated using pymatgen
data_LiSb3(PO5)2
_symmetry_space_group_name_H-M   'P 1'
_cell_length_a   6.67624956
_cell_length_b   7.27765155
_cell_length_c   19.49166222
_cell_angle_alpha   104.69519360
_cell_angle_beta   95.52401070
_cell_angle_gamma   62.96313487
_symmetry_Int_Tables_number   1
_chemical_formula_structural   LiSb3(PO5)2
_chemical_formula_sum   'Li1 Sb3 P2 O10'
_cell_volume   815.75769294
_cell_formula_units_Z   1
loop_
 _symmetry_equiv_pos_site_id
 _symmetry_equiv_pos_as_xyz
  1  'x, y, z'
loop_
 _atom_site_type_symbol
 _atom_site_label
 _atom_site_symmetry_multiplicity
 _atom_site_fract_x
 _atom_site_fract_y
 _atom_site_fract_z
 _atom_site_occupancy
  Li  Li1  1  0.323415  0.276594  0.488298  1
  Sb  Sb2  1  0.292438  0.868063  0.397325  1
  Sb  Sb3  1  0.819731  0.379552  0.469896  1
  Sb  Sb4  1  0.968896  0.694675  0.593749  1
  P  P5  1  0.792369  0.942732  0.454730  1
  P  P6  1  0.363718  0.770217  0.566443  1
  O  O7  1  0.839221  0.782796  0.500982  1
  O  O8  1  0.622949  0.650285  0.573432  1
  O  O9  1  0.557721  0.000145  0.423130  1
  O  O10  1  0.318980  0.877293  0.501366  1
  O  O11  1  0.227296  0.926273  0.630054  1
  O  O12  1  0.111769  0.174851  0.412238  1
  O  O13  1  0.041237  0.396859  0.543415  1
  O  O14  1  0.283486  0.586672  0.542485  1
  O  O15  1  0.978947  0.845981  0.397257  1
  O  O16  1  0.784936  0.151536  0.505198  1
