# generated using pymatgen
data_Al2ZnS4
_symmetry_space_group_name_H-M   'P 1'
_cell_length_a   3.69261659
_cell_length_b   3.69261615
_cell_length_c   28.99714700
_cell_angle_alpha   90.00000000
_cell_angle_beta   90.00000000
_cell_angle_gamma   120.00000384
_symmetry_Int_Tables_number   1
_chemical_formula_structural   Al2ZnS4
_chemical_formula_sum   'Al2 Zn1 S4'
_cell_volume   342.41617105
_cell_formula_units_Z   1
loop_
 _symmetry_equiv_pos_site_id
 _symmetry_equiv_pos_as_xyz
  1  'x, y, z'
loop_
 _atom_site_type_symbol
 _atom_site_label
 _atom_site_symmetry_multiplicity
 _atom_site_fract_x
 _atom_site_fract_y
 _atom_site_fract_z
 _atom_site_occupancy
  Al  Al1  1  -0.000000  -0.000000  0.375718  1
  Al  Al2  1  0.666667  0.333333  0.502263  1
  Zn  Zn3  1  0.333333  0.666667  0.633090  1
  S  S4  1  0.333333  0.666667  0.343498  1
  S  S5  1  0.333333  0.666667  0.539707  1
  S  S6  1  -0.000000  -0.000000  0.451821  1
  S  S7  1  -0.000000  -0.000000  0.653905  1
