# generated using pymatgen
data_CdPSe3
_symmetry_space_group_name_H-M   'P 1'
_cell_length_a   6.58616809
_cell_length_b   6.58616787
_cell_length_c   23.59365800
_cell_angle_alpha   90.00000000
_cell_angle_beta   90.00000000
_cell_angle_gamma   59.99999887
_symmetry_Int_Tables_number   1
_chemical_formula_structural   CdPSe3
_chemical_formula_sum   'Cd2 P2 Se6'
_cell_volume   886.32196669
_cell_formula_units_Z   2
loop_
 _symmetry_equiv_pos_site_id
 _symmetry_equiv_pos_as_xyz
  1  'x, y, z'
loop_
 _atom_site_type_symbol
 _atom_site_label
 _atom_site_symmetry_multiplicity
 _atom_site_fract_x
 _atom_site_fract_y
 _atom_site_fract_z
 _atom_site_occupancy
  Cd  Cd1  1  0.666667  0.666667  0.498176  1
  Cd  Cd2  1  0.333333  0.333333  0.501824  1
  P  P3  1  -0.000000  0.000000  0.548556  1
  P  P4  1  -0.000000  -0.000000  0.451444  1
  Se  Se5  1  0.681077  0.995104  0.576004  1
  Se  Se6  1  0.995104  0.323820  0.576004  1
  Se  Se7  1  0.323820  0.681077  0.576004  1
  Se  Se8  1  0.318923  0.004896  0.423996  1
  Se  Se9  1  0.004896  0.676180  0.423996  1
  Se  Se10  1  0.676180  0.318923  0.423996  1
