# generated using pymatgen
data_HoBrO
_symmetry_space_group_name_H-M   'P 1'
_cell_length_a   3.81798326
_cell_length_b   4.13300024
_cell_length_c   26.21366250
_cell_angle_alpha   90.00000000
_cell_angle_beta   90.00000000
_cell_angle_gamma   90.00000000
_symmetry_Int_Tables_number   1
_chemical_formula_structural   HoBrO
_chemical_formula_sum   'Ho2 Br2 O2'
_cell_volume   413.64440463
_cell_formula_units_Z   2
loop_
 _symmetry_equiv_pos_site_id
 _symmetry_equiv_pos_as_xyz
  1  'x, y, z'
loop_
 _atom_site_type_symbol
 _atom_site_label
 _atom_site_symmetry_multiplicity
 _atom_site_fract_x
 _atom_site_fract_y
 _atom_site_fract_z
 _atom_site_occupancy
  Ho  Ho1  1  0.500000  0.500000  0.460048  1
  Ho  Ho2  1  -0.000000  -0.000000  0.539952  1
  Br  Br3  1  0.000000  0.500000  0.381039  1
  Br  Br4  1  0.500000  -0.000000  0.618961  1
  O  O5  1  -0.000000  0.500000  0.508734  1
  O  O6  1  0.500000  0.000000  0.491266  1
