# generated using pymatgen
data_Si(PbS2)2
_symmetry_space_group_name_H-M   'P 1'
_cell_length_a   6.73577730
_cell_length_b   17.93324444
_cell_length_c   23.54438900
_cell_angle_alpha   90.00000000
_cell_angle_beta   90.00000000
_cell_angle_gamma   90.00000000
_symmetry_Int_Tables_number   1
_chemical_formula_structural   Si(PbS2)2
_chemical_formula_sum   'Si4 Pb8 S16'
_cell_volume   2844.02894913
_cell_formula_units_Z   4
loop_
 _symmetry_equiv_pos_site_id
 _symmetry_equiv_pos_as_xyz
  1  'x, y, z'
loop_
 _atom_site_type_symbol
 _atom_site_label
 _atom_site_symmetry_multiplicity
 _atom_site_fract_x
 _atom_site_fract_y
 _atom_site_fract_z
 _atom_site_occupancy
  Si  Si1  1  0.242673  0.449255  0.519470  1
  Si  Si2  1  0.757327  0.216028  0.480530  1
  Si  Si3  1  0.742673  0.716028  0.480530  1
  Si  Si4  1  0.257327  0.949255  0.519470  1
  Pb  Pb5  1  0.284010  0.301261  0.428702  1
  Pb  Pb6  1  0.215990  0.801261  0.428702  1
  Pb  Pb7  1  0.678017  0.016904  0.453474  1
  Pb  Pb8  1  0.321983  0.648379  0.546526  1
  Pb  Pb9  1  0.821983  0.516904  0.453474  1
  Pb  Pb10  1  0.715990  0.364023  0.571298  1
  Pb  Pb11  1  0.178017  0.148379  0.546526  1
  Pb  Pb12  1  0.784010  0.864023  0.571298  1
  S  S13  1  0.486961  0.668070  0.441373  1
  S  S14  1  0.732131  0.332694  0.457067  1
  S  S15  1  0.281697  0.962458  0.429908  1
  S  S16  1  0.503025  0.159533  0.447739  1
  S  S17  1  0.218303  0.462458  0.429908  1
  S  S18  1  0.267869  0.332590  0.542933  1
  S  S19  1  0.003025  0.005751  0.552261  1
  S  S20  1  0.513039  0.997214  0.558627  1
  S  S21  1  0.767869  0.832694  0.457067  1
  S  S22  1  0.996975  0.659533  0.447739  1
  S  S23  1  0.986961  0.497214  0.558627  1
  S  S24  1  0.781697  0.202825  0.570092  1
  S  S25  1  0.013039  0.168070  0.441373  1
  S  S26  1  0.232131  0.832590  0.542933  1
  S  S27  1  0.718303  0.702825  0.570092  1
  S  S28  1  0.496975  0.505751  0.552261  1
