# generated using pymatgen
data_NbNiTe2
_symmetry_space_group_name_H-M   'P 1'
_cell_length_a   6.29264341
_cell_length_b   8.00875459
_cell_length_c   24.68632900
_cell_angle_alpha   90.00000000
_cell_angle_beta   90.00000000
_cell_angle_gamma   90.00000000
_symmetry_Int_Tables_number   1
_chemical_formula_structural   NbNiTe2
_chemical_formula_sum   'Nb4 Ni4 Te8'
_cell_volume   1244.09808184
_cell_formula_units_Z   4
loop_
 _symmetry_equiv_pos_site_id
 _symmetry_equiv_pos_as_xyz
  1  'x, y, z'
loop_
 _atom_site_type_symbol
 _atom_site_label
 _atom_site_symmetry_multiplicity
 _atom_site_fract_x
 _atom_site_fract_y
 _atom_site_fract_z
 _atom_site_occupancy
  Nb  Nb1  1  0.250090  0.959282  0.499981  1
  Nb  Nb2  1  0.749910  0.040718  0.499981  1
  Nb  Nb3  1  0.749910  0.459282  0.499981  1
  Nb  Nb4  1  0.250090  0.540718  0.499981  1
  Ni  Ni5  1  0.607466  0.750000  0.535734  1
  Ni  Ni6  1  0.392534  0.250000  0.535734  1
  Ni  Ni7  1  0.892942  0.750000  0.464303  1
  Ni  Ni8  1  0.107058  0.250000  0.464303  1
  Te  Te9  1  0.497316  0.750000  0.432675  1
  Te  Te10  1  0.502684  0.250000  0.432675  1
  Te  Te11  1  0.500000  0.000000  0.595388  1
  Te  Te12  1  0.500000  0.500000  0.595388  1
  Te  Te13  1  0.003045  0.750000  0.567335  1
  Te  Te14  1  0.996955  0.250000  0.567335  1
  Te  Te15  1  0.000000  0.000000  0.404603  1
  Te  Te16  1  0.000000  0.500000  0.404603  1
