# generated using pymatgen
data_GdZnPO
_symmetry_space_group_name_H-M   'P 1'
_cell_length_a   3.92561257
_cell_length_b   3.92561292
_cell_length_c   28.40218200
_cell_angle_alpha   90.00000000
_cell_angle_beta   90.00000000
_cell_angle_gamma   60.00000305
_symmetry_Int_Tables_number   1
_chemical_formula_structural   GdZnPO
_chemical_formula_sum   'Gd2 Zn2 P2 O2'
_cell_volume   379.05066351
_cell_formula_units_Z   2
loop_
 _symmetry_equiv_pos_site_id
 _symmetry_equiv_pos_as_xyz
  1  'x, y, z'
loop_
 _atom_site_type_symbol
 _atom_site_label
 _atom_site_symmetry_multiplicity
 _atom_site_fract_x
 _atom_site_fract_y
 _atom_site_fract_z
 _atom_site_occupancy
  Gd  Gd1  1  0.333333  0.333333  0.550936  1
  Gd  Gd2  1  0.000000  0.000000  0.449064  1
  Zn  Zn3  1  0.000000  0.000000  0.641323  1
  Zn  Zn4  1  0.333333  0.333333  0.358677  1
  P  P5  1  0.666667  0.666667  0.624996  1
  P  P6  1  0.666667  0.666667  0.375004  1
  O  O7  1  0.000000  0.000000  0.530452  1
  O  O8  1  0.333333  0.333333  0.469548  1
