# generated using pymatgen
data_SiS
_symmetry_space_group_name_H-M   'P 1'
_cell_length_a   3.96287863
_cell_length_b   6.66210128
_cell_length_c   24.07170100
_cell_angle_alpha   90.00000000
_cell_angle_beta   90.00000000
_cell_angle_gamma   90.00000000
_symmetry_Int_Tables_number   1
_chemical_formula_structural   SiS
_chemical_formula_sum   'Si4 S4'
_cell_volume   635.51935623
_cell_formula_units_Z   4
loop_
 _symmetry_equiv_pos_site_id
 _symmetry_equiv_pos_as_xyz
  1  'x, y, z'
loop_
 _atom_site_type_symbol
 _atom_site_label
 _atom_site_symmetry_multiplicity
 _atom_site_fract_x
 _atom_site_fract_y
 _atom_site_fract_z
 _atom_site_occupancy
  Si  Si1  1  -0.000000  0.500000  0.527517  1
  Si  Si2  1  -0.000000  -0.000000  0.527517  1
  Si  Si3  1  0.500000  0.500000  0.472485  1
  Si  Si4  1  0.500000  0.000000  0.472485  1
  S  S5  1  0.045559  0.250000  0.584776  1
  S  S6  1  0.954441  0.750000  0.584776  1
  S  S7  1  0.454715  0.250000  0.415222  1
  S  S8  1  0.545285  0.750000  0.415222  1
