# generated using pymatgen
data_TmAg(PSe3)2
_symmetry_space_group_name_H-M   'P 1'
_cell_length_a   6.60751473
_cell_length_b   6.60751583
_cell_length_c   23.60273300
_cell_angle_alpha   90.00000000
_cell_angle_beta   90.00000000
_cell_angle_gamma   119.99999955
_symmetry_Int_Tables_number   1
_chemical_formula_structural   TmAg(PSe3)2
_chemical_formula_sum   'Tm1 Ag1 P2 Se6'
_cell_volume   892.41996864
_cell_formula_units_Z   1
loop_
 _symmetry_equiv_pos_site_id
 _symmetry_equiv_pos_as_xyz
  1  'x, y, z'
loop_
 _atom_site_type_symbol
 _atom_site_label
 _atom_site_symmetry_multiplicity
 _atom_site_fract_x
 _atom_site_fract_y
 _atom_site_fract_z
 _atom_site_occupancy
  Tm  Tm1  1  -0.000000  0.000000  0.500000  1
  Ag  Ag2  1  0.333333  0.666667  0.500000  1
  P  P3  1  0.666667  0.333333  0.548255  1
  P  P4  1  0.666667  0.333333  0.451745  1
  Se  Se5  1  0.680090  0.659429  0.423739  1
  Se  Se6  1  0.979338  0.319910  0.423739  1
  Se  Se7  1  0.340571  0.020662  0.423739  1
  Se  Se8  1  0.680090  0.020662  0.576261  1
  Se  Se9  1  0.979338  0.659429  0.576261  1
  Se  Se10  1  0.340571  0.319910  0.576261  1
