# generated using pymatgen
data_AlCl3
_symmetry_space_group_name_H-M   'P 1'
_cell_length_a   5.95695426
_cell_length_b   5.95695431
_cell_length_c   22.68673700
_cell_angle_alpha   90.00000000
_cell_angle_beta   90.00000000
_cell_angle_gamma   119.98306626
_symmetry_Int_Tables_number   1
_chemical_formula_structural   AlCl3
_chemical_formula_sum   'Al2 Cl6'
_cell_volume   697.30902020
_cell_formula_units_Z   2
loop_
 _symmetry_equiv_pos_site_id
 _symmetry_equiv_pos_as_xyz
  1  'x, y, z'
loop_
 _atom_site_type_symbol
 _atom_site_label
 _atom_site_symmetry_multiplicity
 _atom_site_fract_x
 _atom_site_fract_y
 _atom_site_fract_z
 _atom_site_occupancy
  Al  Al1  1  0.833313  0.166687  0.500000  1
  Al  Al2  1  0.166687  0.833313  0.500000  1
  Cl  Cl3  1  0.857750  0.857750  0.441127  1
  Cl  Cl4  1  0.142250  0.142250  0.558873  1
  Cl  Cl5  1  0.499934  0.857366  0.558808  1
  Cl  Cl6  1  0.142634  0.500066  0.441192  1
  Cl  Cl7  1  0.500066  0.142634  0.441192  1
  Cl  Cl8  1  0.857366  0.499934  0.558808  1
