# generated using pymatgen
data_Ba2Ni3O7
_symmetry_space_group_name_H-M   'P 1'
_cell_length_a   3.70548866
_cell_length_b   3.77362812
_cell_length_c   29.49381925
_cell_angle_alpha   89.58035831
_cell_angle_beta   89.95823581
_cell_angle_gamma   90.42039688
_symmetry_Int_Tables_number   1
_chemical_formula_structural   Ba2Ni3O7
_chemical_formula_sum   'Ba2 Ni3 O7'
_cell_volume   412.39380302
_cell_formula_units_Z   1
loop_
 _symmetry_equiv_pos_site_id
 _symmetry_equiv_pos_as_xyz
  1  'x, y, z'
loop_
 _atom_site_type_symbol
 _atom_site_label
 _atom_site_symmetry_multiplicity
 _atom_site_fract_x
 _atom_site_fract_y
 _atom_site_fract_z
 _atom_site_occupancy
  Ba  Ba1  1  0.496106  0.496759  0.585176  1
  Ba  Ba2  1  0.501031  0.506495  0.416418  1
  Ni  Ni3  1  0.995951  0.992198  0.665229  1
  Ni  Ni4  1  0.002301  0.010111  0.334645  1
  Ni  Ni5  1  0.998371  0.001977  0.499972  1
  O  O6  1  0.987051  0.501879  0.499956  1
  O  O7  1  0.496100  0.992564  0.654741  1
  O  O8  1  0.502212  0.009945  0.344805  1
  O  O9  1  0.995816  0.492597  0.655370  1
  O  O10  1  0.001743  0.509549  0.344237  1
  O  O11  1  0.996977  0.998394  0.560267  1
  O  O12  1  0.001926  0.005328  0.439185  1
