# generated using pymatgen
data_Sc7(CCl5)2
_symmetry_space_group_name_H-M   'P 1'
_cell_length_a   3.49600058
_cell_length_b   13.76953832
_cell_length_c   27.60814131
_cell_angle_alpha   90.43338365
_cell_angle_beta   90.00000000
_cell_angle_gamma   82.70680092
_symmetry_Int_Tables_number   1
_chemical_formula_structural   Sc7(CCl5)2
_chemical_formula_sum   'Sc7 C2 Cl10'
_cell_volume   1318.21871842
_cell_formula_units_Z   1
loop_
 _symmetry_equiv_pos_site_id
 _symmetry_equiv_pos_as_xyz
  1  'x, y, z'
loop_
 _atom_site_type_symbol
 _atom_site_label
 _atom_site_symmetry_multiplicity
 _atom_site_fract_x
 _atom_site_fract_y
 _atom_site_fract_z
 _atom_site_occupancy
  Sc  Sc1  1  0.773114  0.453772  0.458258  1
  Sc  Sc2  1  0.226886  0.546228  0.541742  1
  Sc  Sc3  1  0.660154  0.679690  0.465833  1
  Sc  Sc4  1  0.339846  0.320310  0.534167  1
  Sc  Sc5  1  0.210360  0.579280  0.381691  1
  Sc  Sc6  1  0.789640  0.420720  0.618309  1
  Sc  Sc7  1  -0.000000  0.000000  0.500000  1
  C  C8  1  0.214320  0.571360  0.458804  1
  C  C9  1  0.785680  0.428640  0.541196  1
  Cl  Cl10  1  0.521540  0.956921  0.560138  1
  Cl  Cl11  1  0.478460  0.043079  0.439862  1
  Cl  Cl12  1  0.643932  0.712137  0.369724  1
  Cl  Cl13  1  0.356068  0.287863  0.630276  1
  Cl  Cl14  1  0.087288  0.825423  0.466476  1
  Cl  Cl15  1  0.226979  0.546041  0.641183  1
  Cl  Cl16  1  0.773021  0.453959  0.358817  1
  Cl  Cl17  1  0.343655  0.312690  0.443572  1
  Cl  Cl18  1  0.656345  0.687310  0.556428  1
  Cl  Cl19  1  0.912712  0.174577  0.533524  1
