# generated using pymatgen
data_InSbS3
_symmetry_space_group_name_H-M   'P 1'
_cell_length_a   3.88981990
_cell_length_b   9.00439077
_cell_length_c   25.42516900
_cell_angle_alpha   90.00000000
_cell_angle_beta   90.00000000
_cell_angle_gamma   90.00000000
_symmetry_Int_Tables_number   1
_chemical_formula_structural   InSbS3
_chemical_formula_sum   'In2 Sb2 S6'
_cell_volume   890.52819924
_cell_formula_units_Z   2
loop_
 _symmetry_equiv_pos_site_id
 _symmetry_equiv_pos_as_xyz
  1  'x, y, z'
loop_
 _atom_site_type_symbol
 _atom_site_label
 _atom_site_symmetry_multiplicity
 _atom_site_fract_x
 _atom_site_fract_y
 _atom_site_fract_z
 _atom_site_occupancy
  In  In1  1  0.750000  0.869269  0.534123  1
  In  In2  1  0.250000  0.130731  0.465877  1
  Sb  Sb3  1  0.750000  0.491556  0.426350  1
  Sb  Sb4  1  0.250000  0.508444  0.573650  1
  S  S5  1  0.250000  0.324687  0.388876  1
  S  S6  1  0.750000  0.675313  0.611124  1
  S  S7  1  0.250000  0.662976  0.493574  1
  S  S8  1  0.750000  0.337024  0.506426  1
  S  S9  1  0.750000  0.964725  0.437350  1
  S  S10  1  0.250000  0.035275  0.562650  1
