# generated using pymatgen
data_Pb5(SI3)2
_symmetry_space_group_name_H-M   'P 1'
_cell_length_a   4.46825973
_cell_length_b   15.59856243
_cell_length_c   26.79829600
_cell_angle_alpha   90.00000000
_cell_angle_beta   90.00000000
_cell_angle_gamma   81.76539624
_symmetry_Int_Tables_number   1
_chemical_formula_structural   Pb5(SI3)2
_chemical_formula_sum   'Pb5 S2 I6'
_cell_volume   1848.54193585
_cell_formula_units_Z   1
loop_
 _symmetry_equiv_pos_site_id
 _symmetry_equiv_pos_as_xyz
  1  'x, y, z'
loop_
 _atom_site_type_symbol
 _atom_site_label
 _atom_site_symmetry_multiplicity
 _atom_site_fract_x
 _atom_site_fract_y
 _atom_site_fract_z
 _atom_site_occupancy
  Pb  Pb1  1  0.372590  0.254821  0.455855  1
  Pb  Pb2  1  0.239017  0.521964  0.436948  1
  Pb  Pb3  1  0.760983  0.478036  0.563052  1
  Pb  Pb4  1  0.627410  0.745179  0.544145  1
  Pb  Pb5  1  -0.000000  -0.000000  0.500000  1
  S  S6  1  0.296398  0.407204  0.513145  1
  S  S7  1  0.703602  0.592796  0.486855  1
  I  I8  1  0.521929  0.956141  0.583839  1
  I  I9  1  0.180182  0.639637  0.611519  1
  I  I10  1  0.899580  0.200840  0.537656  1
  I  I11  1  0.478071  0.043859  0.416161  1
  I  I12  1  0.819818  0.360363  0.388481  1
  I  I13  1  0.100420  0.799160  0.462344  1
