# generated using pymatgen
data_CdBiSe2I
_symmetry_space_group_name_H-M   'P 1'
_cell_length_a   4.09048495
_cell_length_b   11.01195580
_cell_length_c   25.97192200
_cell_angle_alpha   90.00000000
_cell_angle_beta   90.00000000
_cell_angle_gamma   90.00000000
_symmetry_Int_Tables_number   1
_chemical_formula_structural   CdBiSe2I
_chemical_formula_sum   'Cd2 Bi2 Se4 I2'
_cell_volume   1169.88547406
_cell_formula_units_Z   2
loop_
 _symmetry_equiv_pos_site_id
 _symmetry_equiv_pos_as_xyz
  1  'x, y, z'
loop_
 _atom_site_type_symbol
 _atom_site_label
 _atom_site_symmetry_multiplicity
 _atom_site_fract_x
 _atom_site_fract_y
 _atom_site_fract_z
 _atom_site_occupancy
  Cd  Cd1  1  -0.000000  0.000000  0.500000  1
  Cd  Cd2  1  -0.000000  0.500000  0.500000  1
  Bi  Bi3  1  0.500000  0.185115  0.396694  1
  Bi  Bi4  1  0.500000  0.814885  0.603306  1
  Se  Se5  1  0.500000  0.956072  0.425934  1
  Se  Se6  1  0.500000  0.043928  0.574066  1
  Se  Se7  1  0.000000  0.252439  0.463296  1
  Se  Se8  1  0.000000  0.747561  0.536704  1
  I  I9  1  0.500000  0.414776  0.573336  1
  I  I10  1  0.500000  0.585224  0.426664  1
