# generated using pymatgen
data_ZrBrO
_symmetry_space_group_name_H-M   'P 1'
_cell_length_a   3.74466120
_cell_length_b   3.74466100
_cell_length_c   26.31377700
_cell_angle_alpha   90.00000000
_cell_angle_beta   90.00000000
_cell_angle_gamma   59.99999826
_symmetry_Int_Tables_number   1
_chemical_formula_structural   ZrBrO
_chemical_formula_sum   'Zr2 Br2 O2'
_cell_volume   319.55002267
_cell_formula_units_Z   2
loop_
 _symmetry_equiv_pos_site_id
 _symmetry_equiv_pos_as_xyz
  1  'x, y, z'
loop_
 _atom_site_type_symbol
 _atom_site_label
 _atom_site_symmetry_multiplicity
 _atom_site_fract_x
 _atom_site_fract_y
 _atom_site_fract_z
 _atom_site_occupancy
  Zr  Zr1  1  0.666667  0.666667  0.547790  1
  Zr  Zr2  1  0.333333  0.333333  0.452210  1
  Br  Br3  1  -0.000000  0.000000  0.619788  1
  Br  Br4  1  -0.000000  0.000000  0.380212  1
  O  O5  1  0.666667  0.666667  0.464118  1
  O  O6  1  0.333333  0.333333  0.535882  1
