# generated using pymatgen
data_Cu3Se2(ClO3)2
_symmetry_space_group_name_H-M   'P 1'
_cell_length_a   5.42146312
_cell_length_b   5.42146294
_cell_length_c   25.48655800
_cell_angle_alpha   90.00000000
_cell_angle_beta   90.00000000
_cell_angle_gamma   69.79461686
_symmetry_Int_Tables_number   1
_chemical_formula_structural   Cu3Se2(ClO3)2
_chemical_formula_sum   'Cu3 Se2 Cl2 O6'
_cell_volume   703.00792610
_cell_formula_units_Z   1
loop_
 _symmetry_equiv_pos_site_id
 _symmetry_equiv_pos_as_xyz
  1  'x, y, z'
loop_
 _atom_site_type_symbol
 _atom_site_label
 _atom_site_symmetry_multiplicity
 _atom_site_fract_x
 _atom_site_fract_y
 _atom_site_fract_z
 _atom_site_occupancy
  Cu  Cu1  1  0.882956  0.882956  0.448200  1
  Cu  Cu2  1  0.500000  0.500000  0.500000  1
  Cu  Cu3  1  0.117044  0.117044  0.551800  1
  Se  Se4  1  0.264233  0.264233  0.422908  1
  Se  Se5  1  0.735767  0.735767  0.577092  1
  Cl  Cl6  1  0.306085  0.306085  0.608614  1
  Cl  Cl7  1  0.693915  0.693915  0.391386  1
  O  O8  1  0.426778  0.808322  0.543944  1
  O  O9  1  0.573222  0.191678  0.456056  1
  O  O10  1  0.111142  0.111142  0.462135  1
  O  O11  1  0.888858  0.888858  0.537865  1
  O  O12  1  0.191678  0.573222  0.456056  1
  O  O13  1  0.808322  0.426778  0.543944  1
