# generated using pymatgen
data_PrTe3
_symmetry_space_group_name_H-M   'P 1'
_cell_length_a   4.40977799
_cell_length_b   4.41176623
_cell_length_c   29.51298500
_cell_angle_alpha   90.00000000
_cell_angle_beta   90.00000000
_cell_angle_gamma   90.00000000
_symmetry_Int_Tables_number   1
_chemical_formula_structural   PrTe3
_chemical_formula_sum   'Pr2 Te6'
_cell_volume   574.17245573
_cell_formula_units_Z   2
loop_
 _symmetry_equiv_pos_site_id
 _symmetry_equiv_pos_as_xyz
  1  'x, y, z'
loop_
 _atom_site_type_symbol
 _atom_site_label
 _atom_site_symmetry_multiplicity
 _atom_site_fract_x
 _atom_site_fract_y
 _atom_site_fract_z
 _atom_site_occupancy
  Pr  Pr1  1  0.419569  0.000000  0.573261  1
  Pr  Pr2  1  0.919569  0.500000  0.426739  1
  Te  Te3  1  0.420397  0.500000  0.338912  1
  Te  Te4  1  0.920397  0.000000  0.661088  1
  Te  Te5  1  0.919396  0.500000  0.540230  1
  Te  Te6  1  0.419396  -0.000000  0.459770  1
  Te  Te7  1  0.920438  -0.000000  0.338908  1
  Te  Te8  1  0.420439  0.500000  0.661092  1
