# generated using pymatgen
data_AgMo3(PO7)2
_symmetry_space_group_name_H-M   'P 1'
_cell_length_a   6.49057019
_cell_length_b   10.60006748
_cell_length_c   27.36583300
_cell_angle_alpha   90.00000000
_cell_angle_beta   90.00000000
_cell_angle_gamma   90.00000000
_symmetry_Int_Tables_number   1
_chemical_formula_structural   AgMo3(PO7)2
_chemical_formula_sum   'Ag2 Mo6 P4 O28'
_cell_volume   1882.78250067
_cell_formula_units_Z   2
loop_
 _symmetry_equiv_pos_site_id
 _symmetry_equiv_pos_as_xyz
  1  'x, y, z'
loop_
 _atom_site_type_symbol
 _atom_site_label
 _atom_site_symmetry_multiplicity
 _atom_site_fract_x
 _atom_site_fract_y
 _atom_site_fract_z
 _atom_site_occupancy
  Ag  Ag1  1  0.750000  0.375655  0.380656  1
  Ag  Ag2  1  0.250000  0.590020  0.619344  1
  Mo  Mo3  1  0.250000  0.921664  0.568471  1
  Mo  Mo4  1  0.750000  0.044011  0.431529  1
  Mo  Mo5  1  0.250000  0.238687  0.576360  1
  Mo  Mo6  1  0.250000  0.408904  0.454100  1
  Mo  Mo7  1  0.750000  0.726988  0.423640  1
  Mo  Mo8  1  0.750000  0.556770  0.545900  1
  P  P9  1  0.750000  0.878598  0.542545  1
  P  P10  1  0.250000  0.087076  0.457455  1
  P  P11  1  0.250000  0.718305  0.464151  1
  P  P12  1  0.750000  0.247370  0.535849  1
  O  O13  1  0.750000  0.383426  0.514328  1
  O  O14  1  0.250000  0.582249  0.485672  1
  O  O15  1  0.750000  0.741378  0.561739  1
  O  O16  1  0.250000  0.224297  0.438261  1
  O  O17  1  0.467118  0.438637  0.418155  1
  O  O18  1  0.967118  0.527038  0.581845  1
  O  O19  1  0.532882  0.527038  0.581845  1
  O  O20  1  0.032882  0.438637  0.418155  1
  O  O21  1  0.941325  0.229072  0.568469  1
  O  O22  1  0.441325  0.736603  0.431531  1
  O  O23  1  0.058675  0.736603  0.431531  1
  O  O24  1  0.558675  0.229072  0.568469  1
  O  O25  1  0.250000  0.804069  0.612894  1
  O  O26  1  0.750000  0.161606  0.387106  1
  O  O27  1  0.250000  0.809549  0.507477  1
  O  O28  1  0.750000  0.156127  0.492523  1
  O  O29  1  0.559161  0.946766  0.562692  1
  O  O30  1  0.059161  0.018909  0.437308  1
  O  O31  1  0.440839  0.018909  0.437308  1
  O  O32  1  0.940839  0.946766  0.562692  1
  O  O33  1  0.750000  0.614816  0.478841  1
  O  O34  1  0.750000  0.884137  0.392714  1
  O  O35  1  0.250000  0.085724  0.514048  1
  O  O36  1  0.750000  0.879951  0.485952  1
  O  O37  1  0.250000  0.341844  0.625051  1
  O  O38  1  0.750000  0.623831  0.374949  1
  O  O39  1  0.250000  0.350858  0.521159  1
  O  O40  1  0.250000  0.081538  0.607286  1
