# generated using pymatgen
data_TlBrO3
_symmetry_space_group_name_H-M   'P 1'
_cell_length_a   6.13487260
_cell_length_b   6.13487310
_cell_length_c   22.11607600
_cell_angle_alpha   90.00000000
_cell_angle_beta   90.00000000
_cell_angle_gamma   60.00000271
_symmetry_Int_Tables_number   1
_chemical_formula_structural   TlBrO3
_chemical_formula_sum   'Tl1 Br1 O3'
_cell_volume   720.85821065
_cell_formula_units_Z   1
loop_
 _symmetry_equiv_pos_site_id
 _symmetry_equiv_pos_as_xyz
  1  'x, y, z'
loop_
 _atom_site_type_symbol
 _atom_site_label
 _atom_site_symmetry_multiplicity
 _atom_site_fract_x
 _atom_site_fract_y
 _atom_site_fract_z
 _atom_site_occupancy
  Tl  Tl1  1  0.333333  0.333333  0.550296  1
  Br  Br2  1  0.666667  0.666667  0.509265  1
  O  O3  1  0.520596  0.520596  0.480146  1
  O  O4  1  0.520596  0.958810  0.480146  1
  O  O5  1  0.958810  0.520596  0.480146  1
