# generated using pymatgen
data_Sb3O2F5
_symmetry_space_group_name_H-M   'P 1'
_cell_length_a   8.10316408
_cell_length_b   12.68616203
_cell_length_c   26.51646510
_cell_angle_alpha   90.00000000
_cell_angle_beta   90.00000000
_cell_angle_gamma   100.97469139
_symmetry_Int_Tables_number   1
_chemical_formula_structural   Sb3O2F5
_chemical_formula_sum   'Sb12 O8 F20'
_cell_volume   2675.98907774
_cell_formula_units_Z   4
loop_
 _symmetry_equiv_pos_site_id
 _symmetry_equiv_pos_as_xyz
  1  'x, y, z'
loop_
 _atom_site_type_symbol
 _atom_site_label
 _atom_site_symmetry_multiplicity
 _atom_site_fract_x
 _atom_site_fract_y
 _atom_site_fract_z
 _atom_site_occupancy
  Sb  Sb1  1  0.250000  -0.000000  0.496359  1
  Sb  Sb2  1  0.750000  -0.000000  0.503641  1
  Sb  Sb3  1  0.138528  0.198361  0.601753  1
  Sb  Sb4  1  0.361472  0.801639  0.601753  1
  Sb  Sb5  1  0.861472  0.801639  0.398247  1
  Sb  Sb6  1  0.638528  0.198361  0.398247  1
  Sb  Sb7  1  0.250000  0.500000  0.595084  1
  Sb  Sb8  1  0.750000  0.500000  0.404916  1
  Sb  Sb9  1  0.431154  0.361284  0.505320  1
  Sb  Sb10  1  0.068846  0.638716  0.505320  1
  Sb  Sb11  1  0.568846  0.638716  0.494680  1
  Sb  Sb12  1  0.931154  0.361284  0.494680  1
  O  O13  1  0.245445  0.335785  0.569421  1
  O  O14  1  0.254555  0.664215  0.569421  1
  O  O15  1  0.754555  0.664215  0.430579  1
  O  O16  1  0.745445  0.335785  0.430579  1
  O  O17  1  0.064547  0.493744  0.542626  1
  O  O18  1  0.435453  0.506256  0.542626  1
  O  O19  1  0.935453  0.506256  0.457374  1
  O  O20  1  0.564547  0.493744  0.457374  1
  F  F21  1  0.234932  0.380575  0.462463  1
  F  F22  1  0.265068  0.619425  0.462463  1
  F  F23  1  0.765068  0.619425  0.537537  1
  F  F24  1  0.734932  0.380575  0.537537  1
  F  F25  1  0.067520  0.965439  0.547574  1
  F  F26  1  0.432480  0.034561  0.547574  1
  F  F27  1  0.932480  0.034561  0.452426  1
  F  F28  1  0.567520  0.965439  0.452426  1
  F  F29  1  0.544481  0.292868  0.351231  1
  F  F30  1  0.955519  0.707132  0.351231  1
  F  F31  1  0.455519  0.707132  0.648769  1
  F  F32  1  0.044481  0.292868  0.648769  1
  F  F33  1  0.216755  0.155182  0.520727  1
  F  F34  1  0.283245  0.844818  0.520727  1
  F  F35  1  0.783245  0.844818  0.479273  1
  F  F36  1  0.716755  0.155182  0.479273  1
  F  F37  1  0.077469  0.819872  0.434341  1
  F  F38  1  0.422531  0.180128  0.434341  1
  F  F39  1  0.922531  0.180128  0.565659  1
  F  F40  1  0.577469  0.819872  0.565659  1
