# generated using pymatgen
data_Li2CeP2
_symmetry_space_group_name_H-M   'P 1'
_cell_length_a   4.09577268
_cell_length_b   4.09577273
_cell_length_c   24.93337095
_cell_angle_alpha   90.00000000
_cell_angle_beta   90.00000000
_cell_angle_gamma   119.99999957
_symmetry_Int_Tables_number   1
_chemical_formula_structural   Li2CeP2
_chemical_formula_sum   'Li2 Ce1 P2'
_cell_volume   362.22909192
_cell_formula_units_Z   1
loop_
 _symmetry_equiv_pos_site_id
 _symmetry_equiv_pos_as_xyz
  1  'x, y, z'
loop_
 _atom_site_type_symbol
 _atom_site_label
 _atom_site_symmetry_multiplicity
 _atom_site_fract_x
 _atom_site_fract_y
 _atom_site_fract_z
 _atom_site_occupancy
  Li  Li1  1  0.666667  0.333333  0.400898  1
  Li  Li2  1  0.333333  0.666667  0.599102  1
  Ce  Ce3  1  -0.000000  -0.000000  0.500000  1
  P  P4  1  0.666667  0.333333  0.562937  1
  P  P5  1  0.333333  0.666667  0.437063  1
