# generated using pymatgen
data_In2Te3
_symmetry_space_group_name_H-M   'P 1'
_cell_length_a   4.27323898
_cell_length_b   4.27323917
_cell_length_c   26.98037700
_cell_angle_alpha   90.00000000
_cell_angle_beta   90.00000000
_cell_angle_gamma   59.99999414
_symmetry_Int_Tables_number   1
_chemical_formula_structural   In2Te3
_chemical_formula_sum   'In2 Te3'
_cell_volume   426.67087782
_cell_formula_units_Z   1
loop_
 _symmetry_equiv_pos_site_id
 _symmetry_equiv_pos_as_xyz
  1  'x, y, z'
loop_
 _atom_site_type_symbol
 _atom_site_label
 _atom_site_symmetry_multiplicity
 _atom_site_fract_x
 _atom_site_fract_y
 _atom_site_fract_z
 _atom_site_occupancy
  In  In1  1  0.333333  0.333333  0.425755  1
  In  In2  1  0.666667  0.666667  0.574245  1
  Te  Te3  1  0.666667  0.666667  0.369242  1
  Te  Te4  1  0.333333  0.333333  0.630758  1
  Te  Te5  1  0.000000  -0.000000  0.500000  1
