# generated using pymatgen
data_Cu2SO4
_symmetry_space_group_name_H-M   'P 1'
_cell_length_a   4.46183763
_cell_length_b   5.77338038
_cell_length_c   21.77445400
_cell_angle_alpha   90.00000000
_cell_angle_beta   90.00000000
_cell_angle_gamma   112.73159715
_symmetry_Int_Tables_number   1
_chemical_formula_structural   Cu2SO4
_chemical_formula_sum   'Cu2 S1 O4'
_cell_volume   517.33903740
_cell_formula_units_Z   1
loop_
 _symmetry_equiv_pos_site_id
 _symmetry_equiv_pos_as_xyz
  1  'x, y, z'
loop_
 _atom_site_type_symbol
 _atom_site_label
 _atom_site_symmetry_multiplicity
 _atom_site_fract_x
 _atom_site_fract_y
 _atom_site_fract_z
 _atom_site_occupancy
  Cu  Cu1  1  0.000000  0.500000  0.536425  1
  Cu  Cu2  1  0.500000  0.500000  0.463575  1
  S  S3  1  0.000000  0.000000  0.500000  1
  O  O4  1  0.110472  0.842069  0.540860  1
  O  O5  1  0.268403  0.157931  0.459140  1
  O  O6  1  0.889528  0.157931  0.540860  1
  O  O7  1  0.731597  0.842069  0.459140  1
