# generated using pymatgen
data_PbWO4
_symmetry_space_group_name_H-M   'P 1'
_cell_length_a   5.08337081
_cell_length_b   5.21660291
_cell_length_c   24.40455537
_cell_angle_alpha   89.91817999
_cell_angle_beta   89.91736709
_cell_angle_gamma   85.48387950
_symmetry_Int_Tables_number   1
_chemical_formula_structural   PbWO4
_chemical_formula_sum   'Pb2 W2 O8'
_cell_volume   645.14770068
_cell_formula_units_Z   2
loop_
 _symmetry_equiv_pos_site_id
 _symmetry_equiv_pos_as_xyz
  1  'x, y, z'
loop_
 _atom_site_type_symbol
 _atom_site_label
 _atom_site_symmetry_multiplicity
 _atom_site_fract_x
 _atom_site_fract_y
 _atom_site_fract_z
 _atom_site_occupancy
  Pb  Pb1  1  0.498301  0.748618  0.410361  1
  Pb  Pb2  1  0.997086  0.747966  0.589647  1
  W  W3  1  0.998031  0.248590  0.456871  1
  W  W4  1  0.497389  0.247859  0.543103  1
  O  O5  1  0.117766  0.477437  0.409249  1
  O  O6  1  0.827778  0.044656  0.524831  1
  O  O7  1  0.667663  0.451911  0.475178  1
  O  O8  1  0.878824  0.019979  0.409221  1
  O  O9  1  0.328126  0.044993  0.475129  1
  O  O10  1  0.377920  0.018983  0.590722  1
  O  O11  1  0.616891  0.476429  0.590814  1
  O  O12  1  0.167386  0.451615  0.524874  1
