# generated using pymatgen
data_BiPPbO5
_symmetry_space_group_name_H-M   'P 1'
_cell_length_a   6.90180738
_cell_length_b   7.83470244
_cell_length_c   25.52839200
_cell_angle_alpha   90.00000000
_cell_angle_beta   90.00000000
_cell_angle_gamma   116.44723211
_symmetry_Int_Tables_number   1
_chemical_formula_structural   BiPPbO5
_chemical_formula_sum   'Bi2 P2 Pb2 O10'
_cell_volume   1235.94508420
_cell_formula_units_Z   2
loop_
 _symmetry_equiv_pos_site_id
 _symmetry_equiv_pos_as_xyz
  1  'x, y, z'
loop_
 _atom_site_type_symbol
 _atom_site_label
 _atom_site_symmetry_multiplicity
 _atom_site_fract_x
 _atom_site_fract_y
 _atom_site_fract_z
 _atom_site_occupancy
  Bi  Bi1  1  0.651081  0.214885  0.467076  1
  Bi  Bi2  1  0.348919  0.785115  0.532924  1
  P  P3  1  0.814134  0.686533  0.508270  1
  P  P4  1  0.185866  0.313467  0.491730  1
  Pb  Pb5  1  0.531434  0.339942  0.593160  1
  Pb  Pb6  1  0.468566  0.660058  0.406840  1
  O  O7  1  0.474664  0.896733  0.456231  1
  O  O8  1  0.217523  0.518653  0.471632  1
  O  O9  1  0.337960  0.265191  0.457386  1
  O  O10  1  0.051900  0.827932  0.515240  1
  O  O11  1  0.662040  0.734809  0.542614  1
  O  O12  1  0.525336  0.103267  0.543769  1
  O  O13  1  0.750265  0.658575  0.449370  1
  O  O14  1  0.782477  0.481347  0.528368  1
  O  O15  1  0.249735  0.341425  0.550630  1
  O  O16  1  0.948100  0.172068  0.484760  1
