# generated using pymatgen
data_Ta2AgF12
_symmetry_space_group_name_H-M   'P 1'
_cell_length_a   5.23090047
_cell_length_b   5.57213571
_cell_length_c   27.89894500
_cell_angle_alpha   90.00000000
_cell_angle_beta   90.00000000
_cell_angle_gamma   63.01279469
_symmetry_Int_Tables_number   1
_chemical_formula_structural   Ta2AgF12
_chemical_formula_sum   'Ta2 Ag1 F12'
_cell_volume   724.62982961
_cell_formula_units_Z   1
loop_
 _symmetry_equiv_pos_site_id
 _symmetry_equiv_pos_as_xyz
  1  'x, y, z'
loop_
 _atom_site_type_symbol
 _atom_site_label
 _atom_site_symmetry_multiplicity
 _atom_site_fract_x
 _atom_site_fract_y
 _atom_site_fract_z
 _atom_site_occupancy
  Ta  Ta1  1  0.767663  0.885198  0.411884  1
  Ta  Ta2  1  0.232337  0.114802  0.588116  1
  Ag  Ag3  1  0.500000  0.500000  0.500000  1
  F  F4  1  0.633356  0.892657  0.589329  1
  F  F5  1  0.366644  0.107343  0.410671  1
  F  F6  1  0.297970  0.270456  0.525816  1
  F  F7  1  0.851830  0.035248  0.358090  1
  F  F8  1  0.148170  0.964752  0.641910  1
  F  F9  1  0.756419  0.595553  0.379655  1
  F  F10  1  0.243581  0.404447  0.620345  1
  F  F11  1  0.163914  0.689927  0.431196  1
  F  F12  1  0.836086  0.310073  0.568804  1
  F  F13  1  0.777356  0.167139  0.456618  1
  F  F14  1  0.222644  0.832861  0.543382  1
  F  F15  1  0.702030  0.729544  0.474184  1
