# generated using pymatgen
data_CaH6C2O7
_symmetry_space_group_name_H-M   'P 1'
_cell_length_a   6.19382178
_cell_length_b   8.38030732
_cell_length_c   26.27076009
_cell_angle_alpha   94.09778290
_cell_angle_beta   88.66965428
_cell_angle_gamma   111.68035548
_symmetry_Int_Tables_number   1
_chemical_formula_structural   CaH6C2O7
_chemical_formula_sum   'Ca2 H12 C4 O14'
_cell_volume   1263.90364278
_cell_formula_units_Z   2
loop_
 _symmetry_equiv_pos_site_id
 _symmetry_equiv_pos_as_xyz
  1  'x, y, z'
loop_
 _atom_site_type_symbol
 _atom_site_label
 _atom_site_symmetry_multiplicity
 _atom_site_fract_x
 _atom_site_fract_y
 _atom_site_fract_z
 _atom_site_occupancy
  Ca  Ca1  1  0.489056  0.651275  0.446175  1
  Ca  Ca2  1  0.510944  0.348725  0.553825  1
  H  H3  1  0.523690  0.643550  0.628773  1
  H  H4  1  0.392751  0.802871  0.368994  1
  H  H5  1  0.932696  0.906724  0.392767  1
  H  H6  1  0.420779  0.283579  0.426532  1
  H  H7  1  0.579221  0.716421  0.573468  1
  H  H8  1  0.214914  0.616648  0.356454  1
  H  H9  1  0.978730  0.756603  0.421106  1
  H  H10  1  0.607249  0.197129  0.631006  1
  H  H11  1  0.785086  0.383352  0.643546  1
  H  H12  1  0.067304  0.093276  0.607233  1
  H  H13  1  0.021270  0.243397  0.578894  1
  H  H14  1  0.476310  0.356450  0.371227  1
  C  C15  1  0.950933  0.547546  0.481818  1
  C  C16  1  0.480717  0.031880  0.473666  1
  C  C17  1  0.519283  0.968120  0.526334  1
  C  C18  1  0.049067  0.452454  0.518182  1
  O  O19  1  0.599561  0.632312  0.596634  1
  O  O20  1  0.859804  0.802172  0.410410  1
  O  O21  1  0.400439  0.367688  0.403366  1
  O  O22  1  0.380581  0.686290  0.356530  1
  O  O23  1  0.460437  0.177436  0.475360  1
  O  O24  1  0.250832  0.453466  0.509346  1
  O  O25  1  0.916509  0.380305  0.554040  1
  O  O26  1  0.539563  0.822564  0.524640  1
  O  O27  1  0.083491  0.619695  0.445960  1
  O  O28  1  0.526741  0.064707  0.565693  1
  O  O29  1  0.749168  0.546534  0.490654  1
  O  O30  1  0.473259  0.935293  0.434307  1
  O  O31  1  0.140196  0.197828  0.589590  1
  O  O32  1  0.619419  0.313710  0.643470  1
