# generated using pymatgen
data_Ba2Tl2W3O10
_symmetry_space_group_name_H-M   'P 1'
_cell_length_a   3.85716964
_cell_length_b   3.88341712
_cell_length_c   36.81409200
_cell_angle_alpha   90.00000000
_cell_angle_beta   90.00000000
_cell_angle_gamma   90.00944764
_symmetry_Int_Tables_number   1
_chemical_formula_structural   Ba2Tl2W3O10
_chemical_formula_sum   'Ba2 Tl2 W3 O10'
_cell_volume   551.43822614
_cell_formula_units_Z   1
loop_
 _symmetry_equiv_pos_site_id
 _symmetry_equiv_pos_as_xyz
  1  'x, y, z'
loop_
 _atom_site_type_symbol
 _atom_site_label
 _atom_site_symmetry_multiplicity
 _atom_site_fract_x
 _atom_site_fract_y
 _atom_site_fract_z
 _atom_site_occupancy
  Ba  Ba1  1  0.987411  0.114084  0.338945  1
  Ba  Ba2  1  0.010623  0.120358  0.661086  1
  Tl  Tl3  1  0.481456  0.656890  0.252673  1
  Tl  Tl4  1  0.510042  0.663873  0.747292  1
  W  W5  1  0.510658  0.608593  0.585741  1
  W  W6  1  0.490518  0.602422  0.414266  1
  W  W7  1  0.497030  0.573482  0.499991  1
  O  O8  1  0.010758  0.609863  0.580046  1
  O  O9  1  0.510761  0.612387  0.637259  1
  O  O10  1  0.511549  0.109132  0.584406  1
  O  O11  1  0.010684  0.620323  0.706430  1
  O  O12  1  0.496640  0.066803  0.500042  1
  O  O13  1  0.490956  0.102865  0.415594  1
  O  O14  1  0.488463  0.605625  0.362747  1
  O  O15  1  0.990367  0.603247  0.419929  1
  O  O16  1  0.983240  0.614819  0.293545  1
  O  O17  1  0.996781  0.561311  0.500009  1
