# generated using pymatgen
data_InPbCl3
_symmetry_space_group_name_H-M   'P 1'
_cell_length_a   4.18609335
_cell_length_b   11.31384136
_cell_length_c   26.91417900
_cell_angle_alpha   90.00000000
_cell_angle_beta   90.00000000
_cell_angle_gamma   90.00000000
_symmetry_Int_Tables_number   1
_chemical_formula_structural   InPbCl3
_chemical_formula_sum   'In2 Pb2 Cl6'
_cell_volume   1274.67694328
_cell_formula_units_Z   2
loop_
 _symmetry_equiv_pos_site_id
 _symmetry_equiv_pos_as_xyz
  1  'x, y, z'
loop_
 _atom_site_type_symbol
 _atom_site_label
 _atom_site_symmetry_multiplicity
 _atom_site_fract_x
 _atom_site_fract_y
 _atom_site_fract_z
 _atom_site_occupancy
  In  In1  1  0.499054  0.250000  0.392654  1
  In  In2  1  0.500946  0.750000  0.607346  1
  Pb  Pb3  1  -0.000000  -0.000000  0.500000  1
  Pb  Pb4  1  0.000000  0.500000  0.500000  1
  Cl  Cl5  1  0.499696  0.990903  0.425717  1
  Cl  Cl6  1  0.500304  0.490903  0.574283  1
  Cl  Cl7  1  0.499696  0.509097  0.425717  1
  Cl  Cl8  1  0.500304  0.009097  0.574283  1
  Cl  Cl9  1  0.000390  0.250000  0.472355  1
  Cl  Cl10  1  0.999610  0.750000  0.527645  1
