# generated using pymatgen
data_SnP3
_symmetry_space_group_name_H-M   'P 1'
_cell_length_a   7.17586934
_cell_length_b   7.17586984
_cell_length_c   22.43209088
_cell_angle_alpha   90.00000000
_cell_angle_beta   90.00000000
_cell_angle_gamma   60.00000230
_symmetry_Int_Tables_number   1
_chemical_formula_structural   SnP3
_chemical_formula_sum   'Sn2 P6'
_cell_volume   1000.34423248
_cell_formula_units_Z   2
loop_
 _symmetry_equiv_pos_site_id
 _symmetry_equiv_pos_as_xyz
  1  'x, y, z'
loop_
 _atom_site_type_symbol
 _atom_site_label
 _atom_site_symmetry_multiplicity
 _atom_site_fract_x
 _atom_site_fract_y
 _atom_site_fract_z
 _atom_site_occupancy
  Sn  Sn1  1  0.000000  0.000000  0.562692  1
  Sn  Sn2  1  0.333333  0.333333  0.437308  1
  P  P3  1  0.500135  0.500135  0.515370  1
  P  P4  1  0.500135  0.999730  0.515370  1
  P  P5  1  0.833199  0.333604  0.484630  1
  P  P6  1  0.833199  0.833199  0.484630  1
  P  P7  1  0.333604  0.833199  0.484630  1
  P  P8  1  0.999730  0.500135  0.515370  1
