# generated using pymatgen
data_TcCl3
_symmetry_space_group_name_H-M   'P 1'
_cell_length_a   5.70045771
_cell_length_b   5.70045826
_cell_length_c   23.21911500
_cell_angle_alpha   90.00000000
_cell_angle_beta   90.00000000
_cell_angle_gamma   115.37121586
_symmetry_Int_Tables_number   1
_chemical_formula_structural   TcCl3
_chemical_formula_sum   'Tc2 Cl6'
_cell_volume   681.73826473
_cell_formula_units_Z   2
loop_
 _symmetry_equiv_pos_site_id
 _symmetry_equiv_pos_as_xyz
  1  'x, y, z'
loop_
 _atom_site_type_symbol
 _atom_site_label
 _atom_site_symmetry_multiplicity
 _atom_site_fract_x
 _atom_site_fract_y
 _atom_site_fract_z
 _atom_site_occupancy
  Tc  Tc1  1  0.858239  0.141761  0.500000  1
  Tc  Tc2  1  0.141761  0.858239  0.500000  1
  Cl  Cl3  1  0.161877  0.161877  0.569865  1
  Cl  Cl4  1  0.838123  0.838123  0.430135  1
  Cl  Cl5  1  0.496602  0.834137  0.556073  1
  Cl  Cl6  1  0.834137  0.496602  0.556073  1
  Cl  Cl7  1  0.503398  0.165863  0.443927  1
  Cl  Cl8  1  0.165863  0.503398  0.443927  1
