# generated using pymatgen
data_NbCl2O
_symmetry_space_group_name_H-M   'P 1'
_cell_length_a   3.92592904
_cell_length_b   6.73563871
_cell_length_c   23.91336400
_cell_angle_alpha   90.00000000
_cell_angle_beta   90.00000000
_cell_angle_gamma   90.00000000
_symmetry_Int_Tables_number   1
_chemical_formula_structural   NbCl2O
_chemical_formula_sum   'Nb2 Cl4 O2'
_cell_volume   632.35637959
_cell_formula_units_Z   2
loop_
 _symmetry_equiv_pos_site_id
 _symmetry_equiv_pos_as_xyz
  1  'x, y, z'
loop_
 _atom_site_type_symbol
 _atom_site_label
 _atom_site_symmetry_multiplicity
 _atom_site_fract_x
 _atom_site_fract_y
 _atom_site_fract_z
 _atom_site_occupancy
  Nb  Nb1  1  0.038062  0.719714  0.499977  1
  Nb  Nb2  1  0.038062  0.280286  0.500023  1
  Cl  Cl3  1  0.991073  0.000200  0.429261  1
  Cl  Cl4  1  0.991073  0.999800  0.570739  1
  Cl  Cl5  1  0.999433  0.499800  0.417691  1
  Cl  Cl6  1  0.999433  0.500200  0.582309  1
  O  O7  1  0.507433  0.727221  0.499851  1
  O  O8  1  0.507433  0.272779  0.500149  1
