# generated using pymatgen
data_CrBiO4
_symmetry_space_group_name_H-M   'P 1'
_cell_length_a   7.17439856
_cell_length_b   8.38036428
_cell_length_c   24.11913200
_cell_angle_alpha   90.00000000
_cell_angle_beta   90.00000000
_cell_angle_gamma   90.00000000
_symmetry_Int_Tables_number   1
_chemical_formula_structural   CrBiO4
_chemical_formula_sum   'Cr4 Bi4 O16'
_cell_volume   1450.14046326
_cell_formula_units_Z   4
loop_
 _symmetry_equiv_pos_site_id
 _symmetry_equiv_pos_as_xyz
  1  'x, y, z'
loop_
 _atom_site_type_symbol
 _atom_site_label
 _atom_site_symmetry_multiplicity
 _atom_site_fract_x
 _atom_site_fract_y
 _atom_site_fract_z
 _atom_site_occupancy
  Cr  Cr1  1  0.827167  0.299444  0.547831  1
  Cr  Cr2  1  0.327167  0.200556  0.452169  1
  Cr  Cr3  1  0.672833  0.799444  0.547831  1
  Cr  Cr4  1  0.172833  0.700556  0.452169  1
  Bi  Bi5  1  0.840817  0.070701  0.442075  1
  Bi  Bi6  1  0.340817  0.429299  0.557925  1
  Bi  Bi7  1  0.659183  0.570701  0.442075  1
  Bi  Bi8  1  0.159183  0.929299  0.557925  1
  O  O9  1  0.886977  0.093938  0.531437  1
  O  O10  1  0.634010  0.299010  0.585876  1
  O  O11  1  0.284364  0.167777  0.524997  1
  O  O12  1  0.516279  0.104444  0.428272  1
  O  O13  1  0.784364  0.332223  0.475003  1
  O  O14  1  0.016279  0.395556  0.571728  1
  O  O15  1  0.134010  0.200990  0.414124  1
  O  O16  1  0.386977  0.406062  0.468563  1
  O  O17  1  0.613023  0.593938  0.531437  1
  O  O18  1  0.865990  0.799010  0.585876  1
  O  O19  1  0.983721  0.604444  0.428272  1
  O  O20  1  0.215636  0.667777  0.524997  1
  O  O21  1  0.483721  0.895556  0.571728  1
  O  O22  1  0.715636  0.832223  0.475003  1
  O  O23  1  0.365990  0.700990  0.414124  1
  O  O24  1  0.113023  0.906062  0.468563  1
