# generated using pymatgen
data_VSeO4
_symmetry_space_group_name_H-M   'P 1'
_cell_length_a   7.90974278
_cell_length_b   9.72227111
_cell_length_c   23.42720700
_cell_angle_alpha   90.00000000
_cell_angle_beta   90.00000000
_cell_angle_gamma   90.00000000
_symmetry_Int_Tables_number   1
_chemical_formula_structural   VSeO4
_chemical_formula_sum   'V4 Se4 O16'
_cell_volume   1801.56776735
_cell_formula_units_Z   4
loop_
 _symmetry_equiv_pos_site_id
 _symmetry_equiv_pos_as_xyz
  1  'x, y, z'
loop_
 _atom_site_type_symbol
 _atom_site_label
 _atom_site_symmetry_multiplicity
 _atom_site_fract_x
 _atom_site_fract_y
 _atom_site_fract_z
 _atom_site_occupancy
  V  V1  1  0.049150  0.009649  0.486406  1
  V  V2  1  0.150472  0.509649  0.513594  1
  V  V3  1  0.650472  0.990351  0.513594  1
  V  V4  1  0.549150  0.490351  0.486406  1
  Se  Se5  1  0.332526  0.791545  0.460569  1
  Se  Se6  1  0.867096  0.291545  0.539431  1
  Se  Se7  1  0.367096  0.208455  0.539431  1
  Se  Se8  1  0.832526  0.708455  0.460569  1
  O  O9  1  0.859193  0.871763  0.497030  1
  O  O10  1  0.340429  0.371763  0.502970  1
  O  O11  1  0.840429  0.128237  0.502970  1
  O  O12  1  0.359193  0.628237  0.497030  1
  O  O13  1  0.162044  0.152542  0.533393  1
  O  O14  1  0.037578  0.652542  0.466607  1
  O  O15  1  0.537578  0.847458  0.466607  1
  O  O16  1  0.662044  0.347458  0.533393  1
  O  O17  1  0.086822  0.013002  0.418318  1
  O  O18  1  0.112799  0.513002  0.581682  1
  O  O19  1  0.612799  -0.013002  0.581682  1
  O  O20  1  0.586822  0.486998  0.418318  1
  O  O21  1  0.231151  0.880135  0.512921  1
  O  O22  1  0.968470  0.380135  0.487079  1
  O  O23  1  0.468470  0.119865  0.487079  1
  O  O24  1  0.731151  0.619865  0.512921  1
