# generated using pymatgen
data_HoBC
_symmetry_space_group_name_H-M   'P 1'
_cell_length_a   3.37601072
_cell_length_b   3.50306446
_cell_length_c   23.99779900
_cell_angle_alpha   90.00000000
_cell_angle_beta   90.00000000
_cell_angle_gamma   90.00000000
_symmetry_Int_Tables_number   1
_chemical_formula_structural   HoBC
_chemical_formula_sum   'Ho2 B2 C2'
_cell_volume   283.80716621
_cell_formula_units_Z   2
loop_
 _symmetry_equiv_pos_site_id
 _symmetry_equiv_pos_as_xyz
  1  'x, y, z'
loop_
 _atom_site_type_symbol
 _atom_site_label
 _atom_site_symmetry_multiplicity
 _atom_site_fract_x
 _atom_site_fract_y
 _atom_site_fract_z
 _atom_site_occupancy
  Ho  Ho1  1  0.750000  0.500000  0.574789  1
  Ho  Ho2  1  0.250000  0.500000  0.425211  1
  B  B3  1  0.750000  -0.000000  0.478827  1
  B  B4  1  0.250000  -0.000000  0.521173  1
  C  C5  1  0.750000  -0.000000  0.417036  1
  C  C6  1  0.250000  -0.000000  0.582964  1
