# generated using pymatgen
data_CaPH3O4
_symmetry_space_group_name_H-M   'P 1'
_cell_length_a   6.68911579
_cell_length_b   7.90374070
_cell_length_c   27.02178759
_cell_angle_alpha   89.45935379
_cell_angle_beta   90.00000000
_cell_angle_gamma   90.00000000
_symmetry_Int_Tables_number   1
_chemical_formula_structural   CaPH3O4
_chemical_formula_sum   'Ca4 P4 H12 O16'
_cell_volume   1428.55227866
_cell_formula_units_Z   4
loop_
 _symmetry_equiv_pos_site_id
 _symmetry_equiv_pos_as_xyz
  1  'x, y, z'
loop_
 _atom_site_type_symbol
 _atom_site_label
 _atom_site_symmetry_multiplicity
 _atom_site_fract_x
 _atom_site_fract_y
 _atom_site_fract_z
 _atom_site_occupancy
  Ca  Ca1  1  0.128488  0.145220  0.528322  1
  Ca  Ca2  1  0.628488  0.018474  0.471678  1
  Ca  Ca3  1  0.871512  0.518474  0.471678  1
  Ca  Ca4  1  0.371512  0.645220  0.528322  1
  P  P5  1  0.133814  0.894892  0.439324  1
  P  P6  1  0.633814  0.268802  0.560676  1
  P  P7  1  0.866186  0.768802  0.560676  1
  P  P8  1  0.366186  0.394892  0.439324  1
  H  H9  1  0.054748  0.456533  0.583371  1
  H  H10  1  0.554748  0.707161  0.416629  1
  H  H11  1  0.945252  0.207161  0.416629  1
  H  H12  1  0.445252  0.956533  0.583371  1
  H  H13  1  0.083811  0.342195  0.632122  1
  H  H14  1  0.583811  0.821500  0.367878  1
  H  H15  1  0.916189  0.321500  0.367878  1
  H  H16  1  0.416189  0.842195  0.632122  1
  H  H17  1  0.771067  0.710910  0.604113  1
  H  H18  1  0.271067  0.452785  0.395887  1
  H  H19  1  0.228933  0.952785  0.395887  1
  H  H20  1  0.728933  0.210910  0.604113  1
  O  O21  1  0.095341  0.342042  0.596361  1
  O  O22  1  0.208870  0.397675  0.481853  1
  O  O23  1  0.791130  0.266020  0.518147  1
  O  O24  1  0.291130  0.897675  0.481853  1
  O  O25  1  0.524655  0.532525  0.451722  1
  O  O26  1  0.024655  0.631170  0.548278  1
  O  O27  1  0.475345  0.131170  0.548278  1
  O  O28  1  0.975345  0.032525  0.451722  1
  O  O29  1  0.450523  0.220199  0.430223  1
  O  O30  1  0.950523  0.943496  0.569777  1
  O  O31  1  0.549477  0.443496  0.569777  1
  O  O32  1  0.049477  0.720199  0.430223  1
  O  O33  1  0.904659  0.321652  0.403639  1
  O  O34  1  0.404659  0.842042  0.596361  1
  O  O35  1  0.708870  0.766020  0.518147  1
  O  O36  1  0.595341  0.821652  0.403639  1
