# generated using pymatgen
data_BaTe2F10
_symmetry_space_group_name_H-M   'P 1'
_cell_length_a   4.83111230
_cell_length_b   10.22448690
_cell_length_c   26.60372000
_cell_angle_alpha   90.00000000
_cell_angle_beta   90.00000000
_cell_angle_gamma   90.00000000
_symmetry_Int_Tables_number   1
_chemical_formula_structural   BaTe2F10
_chemical_formula_sum   'Ba2 Te4 F20'
_cell_volume   1314.10789347
_cell_formula_units_Z   2
loop_
 _symmetry_equiv_pos_site_id
 _symmetry_equiv_pos_as_xyz
  1  'x, y, z'
loop_
 _atom_site_type_symbol
 _atom_site_label
 _atom_site_symmetry_multiplicity
 _atom_site_fract_x
 _atom_site_fract_y
 _atom_site_fract_z
 _atom_site_occupancy
  Ba  Ba1  1  0.957721  0.750000  0.500000  1
  Ba  Ba2  1  0.042279  0.250000  0.500000  1
  Te  Te3  1  0.443125  0.465227  0.597062  1
  Te  Te4  1  0.443125  0.034773  0.402938  1
  Te  Te5  1  0.556875  0.534773  0.402938  1
  Te  Te6  1  0.556875  0.965227  0.597062  1
  F  F7  1  0.564243  0.327877  0.544773  1
  F  F8  1  0.564243  0.172123  0.455227  1
  F  F9  1  0.435757  0.672123  0.455227  1
  F  F10  1  0.435757  0.827877  0.544773  1
  F  F11  1  0.099941  0.355954  0.602367  1
  F  F12  1  0.099941  0.144046  0.397633  1
  F  F13  1  0.900060  0.644046  0.397633  1
  F  F14  1  0.900060  0.855954  0.602367  1
  F  F15  1  0.238696  0.515785  0.536984  1
  F  F16  1  0.238696  0.984215  0.463016  1
  F  F17  1  0.761305  0.484215  0.463016  1
  F  F18  1  0.761305  0.015785  0.536984  1
  F  F19  1  0.711039  0.587985  0.565724  1
  F  F20  1  0.711039  0.912015  0.434276  1
  F  F21  1  0.288961  0.412015  0.434276  1
  F  F22  1  0.288961  0.087984  0.565724  1
  F  F23  1  0.247815  0.615191  0.625139  1
  F  F24  1  0.247815  0.884809  0.374861  1
  F  F25  1  0.752186  0.384809  0.374861  1
  F  F26  1  0.752186  0.115191  0.625139  1
