# generated using pymatgen
data_UTeN
_symmetry_space_group_name_H-M   'P 1'
_cell_length_a   3.85054804
_cell_length_b   3.85054804
_cell_length_c   25.74148400
_cell_angle_alpha   90.00000000
_cell_angle_beta   90.00000000
_cell_angle_gamma   90.00000000
_symmetry_Int_Tables_number   1
_chemical_formula_structural   UTeN
_chemical_formula_sum   'U2 Te2 N2'
_cell_volume   381.66178102
_cell_formula_units_Z   2
loop_
 _symmetry_equiv_pos_site_id
 _symmetry_equiv_pos_as_xyz
  1  'x, y, z'
loop_
 _atom_site_type_symbol
 _atom_site_label
 _atom_site_symmetry_multiplicity
 _atom_site_fract_x
 _atom_site_fract_y
 _atom_site_fract_z
 _atom_site_occupancy
  U  U1  1  0.500000  0.000000  0.454264  1
  U  U2  1  -0.000000  0.500000  0.545736  1
  Te  Te3  1  0.500000  0.000000  0.613179  1
  Te  Te4  1  0.000000  0.500000  0.386821  1
  N  N5  1  0.500000  0.500000  0.500000  1
  N  N6  1  -0.000000  -0.000000  0.500000  1
