# generated using pymatgen
data_AgRuF7
_symmetry_space_group_name_H-M   'P 1'
_cell_length_a   5.52855637
_cell_length_b   11.38361743
_cell_length_c   28.35298400
_cell_angle_alpha   90.00000000
_cell_angle_beta   90.00000000
_cell_angle_gamma   90.00000000
_symmetry_Int_Tables_number   1
_chemical_formula_structural   AgRuF7
_chemical_formula_sum   'Ag4 Ru4 F28'
_cell_volume   1784.39421606
_cell_formula_units_Z   4
loop_
 _symmetry_equiv_pos_site_id
 _symmetry_equiv_pos_as_xyz
  1  'x, y, z'
loop_
 _atom_site_type_symbol
 _atom_site_label
 _atom_site_symmetry_multiplicity
 _atom_site_fract_x
 _atom_site_fract_y
 _atom_site_fract_z
 _atom_site_occupancy
  Ag  Ag1  1  0.313257  0.669056  0.457710  1
  Ag  Ag2  1  0.813257  0.817430  0.542290  1
  Ag  Ag3  1  0.686743  0.317430  0.542290  1
  Ag  Ag4  1  0.186743  0.169056  0.457710  1
  Ru  Ru5  1  0.199189  0.513855  0.585783  1
  Ru  Ru6  1  0.699189  0.972632  0.414217  1
  Ru  Ru7  1  0.800811  0.472632  0.414217  1
  Ru  Ru8  1  0.300811  0.013855  0.585783  1
  F  F9  1  0.609872  0.726412  0.493915  1
  F  F10  1  0.109872  0.760075  0.506085  1
  F  F11  1  0.390128  0.260075  0.506085  1
  F  F12  1  0.890128  0.226412  0.493915  1
  F  F13  1  0.401364  0.644200  0.590158  1
  F  F14  1  0.901364  0.842287  0.409842  1
  F  F15  1  0.598636  0.342287  0.409842  1
  F  F16  1  0.098636  0.144200  0.590158  1
  F  F17  1  0.496536  0.872311  0.580982  1
  F  F18  1  0.996536  0.614176  0.419018  1
  F  F19  1  0.503464  0.114176  0.419018  1
  F  F20  1  0.003464  0.372311  0.580982  1
  F  F21  1  0.022213  0.910532  0.594849  1
  F  F22  1  0.522213  0.575955  0.405151  1
  F  F23  1  0.977787  0.075955  0.405151  1
  F  F24  1  0.477787  0.410532  0.594849  1
  F  F25  1  0.245340  0.006002  0.519292  1
  F  F26  1  0.745340  0.480485  0.480708  1
  F  F27  1  0.754660  0.980485  0.480708  1
  F  F28  1  0.254660  0.506002  0.519292  1
  F  F29  1  0.350781  0.012779  0.650887  1
  F  F30  1  0.850781  0.473708  0.349113  1
  F  F31  1  0.649219  0.973708  0.349113  1
  F  F32  1  0.149219  0.512779  0.650887  1
  F  F33  1  0.580165  0.105647  0.576426  1
  F  F34  1  0.080165  0.380840  0.423574  1
  F  F35  1  0.419835  0.880840  0.423574  1
  F  F36  1  0.919835  0.605647  0.576426  1
