# generated using pymatgen
data_U(HO2)2
_symmetry_space_group_name_H-M   'P 1'
_cell_length_a   3.41069503
_cell_length_b   9.28171239
_cell_length_c   25.63406700
_cell_angle_alpha   90.00000000
_cell_angle_beta   90.00000000
_cell_angle_gamma   90.00000000
_symmetry_Int_Tables_number   1
_chemical_formula_structural   U(HO2)2
_chemical_formula_sum   'U2 H4 O8'
_cell_volume   811.49997425
_cell_formula_units_Z   2
loop_
 _symmetry_equiv_pos_site_id
 _symmetry_equiv_pos_as_xyz
  1  'x, y, z'
loop_
 _atom_site_type_symbol
 _atom_site_label
 _atom_site_symmetry_multiplicity
 _atom_site_fract_x
 _atom_site_fract_y
 _atom_site_fract_z
 _atom_site_occupancy
  U  U1  1  0.500000  0.500000  0.500000  1
  U  U2  1  0.000000  -0.000000  0.500000  1
  H  H3  1  0.500000  0.614770  0.389564  1
  H  H4  1  0.500000  0.385230  0.610436  1
  H  H5  1  -0.000000  0.114770  0.610436  1
  H  H6  1  -0.000000  0.885230  0.389564  1
  O  O7  1  0.500000  0.594603  0.426632  1
  O  O8  1  0.500000  0.405397  0.573368  1
  O  O9  1  0.000000  0.094603  0.573368  1
  O  O10  1  -0.000000  0.905397  0.426632  1
  O  O11  1  -0.000000  0.618018  0.522115  1
  O  O12  1  -0.000000  0.381982  0.477885  1
  O  O13  1  0.500000  0.118018  0.477885  1
  O  O14  1  0.500000  0.881982  0.522115  1
