# generated using pymatgen
data_CaTi(GeO3)2
_symmetry_space_group_name_H-M   'P 1'
_cell_length_a   5.39882224
_cell_length_b   8.65632868
_cell_length_c   30.02756082
_cell_angle_alpha   90.00000000
_cell_angle_beta   89.40944131
_cell_angle_gamma   90.00000000
_symmetry_Int_Tables_number   1
_chemical_formula_structural   CaTi(GeO3)2
_chemical_formula_sum   'Ca4 Ti4 Ge8 O24'
_cell_volume   1403.23287844
_cell_formula_units_Z   4
loop_
 _symmetry_equiv_pos_site_id
 _symmetry_equiv_pos_as_xyz
  1  'x, y, z'
loop_
 _atom_site_type_symbol
 _atom_site_label
 _atom_site_symmetry_multiplicity
 _atom_site_fract_x
 _atom_site_fract_y
 _atom_site_fract_z
 _atom_site_occupancy
  Ca  Ca1  1  0.101443  0.417967  0.408171  1
  Ca  Ca2  1  0.398557  0.917967  0.591829  1
  Ca  Ca3  1  0.898557  0.582033  0.591829  1
  Ca  Ca4  1  0.601443  0.082033  0.408171  1
  Ti  Ti5  1  0.593549  0.664944  0.412185  1
  Ti  Ti6  1  0.906451  0.164943  0.587816  1
  Ti  Ti7  1  0.406451  0.335056  0.587816  1
  Ti  Ti8  1  0.093549  0.835056  0.412185  1
  Ge  Ge9  1  0.549825  0.363145  0.331086  1
  Ge  Ge10  1  0.950175  0.863145  0.668914  1
  Ge  Ge11  1  0.450175  0.636855  0.668914  1
  Ge  Ge12  1  0.049825  0.136855  0.331086  1
  Ge  Ge13  1  0.634807  0.353054  0.492168  1
  Ge  Ge14  1  0.865193  0.853054  0.507832  1
  Ge  Ge15  1  0.365193  0.646946  0.507832  1
  Ge  Ge16  1  0.134807  0.146946  0.492168  1
  O  O17  1  0.898303  0.253797  0.462357  1
  O  O18  1  0.601697  0.753797  0.537643  1
  O  O19  1  0.101697  0.746203  0.537643  1
  O  O20  1  0.398303  0.246203  0.462357  1
  O  O21  1  0.822782  0.278605  0.362876  1
  O  O22  1  0.677218  0.778605  0.637124  1
  O  O23  1  0.177218  0.721395  0.637124  1
  O  O24  1  0.322782  0.221395  0.362876  1
  O  O25  1  0.178253  0.958540  0.469943  1
  O  O26  1  0.321747  0.458540  0.530057  1
  O  O27  1  0.821747  0.041460  0.530057  1
  O  O28  1  0.678253  0.541460  0.469943  1
  O  O29  1  0.975559  0.992919  0.379365  1
  O  O30  1  0.524441  0.492919  0.620635  1
  O  O31  1  0.024441  0.007081  0.620635  1
  O  O32  1  0.475559  0.507081  0.379365  1
  O  O33  1  0.081781  0.337112  0.611213  1
  O  O34  1  0.418219  0.837112  0.388787  1
  O  O35  1  0.918219  0.662888  0.388787  1
  O  O36  1  0.581781  0.162888  0.611213  1
  O  O37  1  0.742504  0.342468  0.547741  1
  O  O38  1  0.757496  0.842468  0.452259  1
  O  O39  1  0.257496  0.657532  0.452259  1
  O  O40  1  0.242504  0.157532  0.547741  1
