# generated using pymatgen
data_CoH6(SeO4)2
_symmetry_space_group_name_H-M   'P 1'
_cell_length_a   6.95521867
_cell_length_b   8.42771846
_cell_length_c   26.39896939
_cell_angle_alpha   89.59981191
_cell_angle_beta   90.00000000
_cell_angle_gamma   90.00000000
_symmetry_Int_Tables_number   1
_chemical_formula_structural   CoH6(SeO4)2
_chemical_formula_sum   'Co2 H12 Se4 O16'
_cell_volume   1547.38073910
_cell_formula_units_Z   2
loop_
 _symmetry_equiv_pos_site_id
 _symmetry_equiv_pos_as_xyz
  1  'x, y, z'
loop_
 _atom_site_type_symbol
 _atom_site_label
 _atom_site_symmetry_multiplicity
 _atom_site_fract_x
 _atom_site_fract_y
 _atom_site_fract_z
 _atom_site_occupancy
  Co  Co1  1  0.500000  0.500000  0.500000  1
  Co  Co2  1  -0.000000  0.000000  0.500000  1
  H  H3  1  0.522593  0.067889  0.377835  1
  H  H4  1  0.977407  0.567889  0.377835  1
  H  H5  1  0.477407  0.932111  0.622165  1
  H  H6  1  0.022593  0.432111  0.622165  1
  H  H7  1  0.790305  0.666979  0.526913  1
  H  H8  1  0.709695  0.166979  0.526913  1
  H  H9  1  0.209695  0.333021  0.473087  1
  H  H10  1  0.290305  0.833021  0.473087  1
  H  H11  1  0.825817  0.499378  0.554729  1
  H  H12  1  0.674183  0.999378  0.554729  1
  H  H13  1  0.174183  0.500622  0.445271  1
  H  H14  1  0.325817  0.000622  0.445271  1
  Se  Se15  1  0.726738  0.246974  0.423029  1
  Se  Se16  1  0.773262  0.746974  0.423029  1
  Se  Se17  1  0.273262  0.753026  0.576971  1
  Se  Se18  1  0.226738  0.253026  0.576971  1
  O  O19  1  0.656209  0.301211  0.481635  1
  O  O20  1  0.843791  0.801211  0.481635  1
  O  O21  1  0.343791  0.698789  0.518365  1
  O  O22  1  0.156209  0.198789  0.518365  1
  O  O23  1  0.918111  0.130808  0.432385  1
  O  O24  1  0.581889  0.630808  0.432385  1
  O  O25  1  0.081889  0.869192  0.567615  1
  O  O26  1  0.418111  0.369192  0.567615  1
  O  O27  1  0.535292  0.087534  0.414213  1
  O  O28  1  0.964708  0.587534  0.414213  1
  O  O29  1  0.464708  0.912466  0.585787  1
  O  O30  1  0.035292  0.412466  0.585787  1
  O  O31  1  0.725718  0.577059  0.545004  1
  O  O32  1  0.774282  0.077059  0.545004  1
  O  O33  1  0.274282  0.422941  0.454996  1
  O  O34  1  0.225718  0.922941  0.454996  1
