# generated using pymatgen
data_SmS
_symmetry_space_group_name_H-M   'P 1'
_cell_length_a   3.92170465
_cell_length_b   3.92170470
_cell_length_c   23.29307200
_cell_angle_alpha   90.00000000
_cell_angle_beta   90.00000000
_cell_angle_gamma   90.01121559
_symmetry_Int_Tables_number   1
_chemical_formula_structural   SmS
_chemical_formula_sum   'Sm2 S2'
_cell_volume   358.24202611
_cell_formula_units_Z   2
loop_
 _symmetry_equiv_pos_site_id
 _symmetry_equiv_pos_as_xyz
  1  'x, y, z'
loop_
 _atom_site_type_symbol
 _atom_site_label
 _atom_site_symmetry_multiplicity
 _atom_site_fract_x
 _atom_site_fract_y
 _atom_site_fract_z
 _atom_site_occupancy
  Sm  Sm1  1  0.250000  0.750000  0.551091  1
  Sm  Sm2  1  0.750000  0.250000  0.448909  1
  S  S3  1  0.250000  0.750000  0.429303  1
  S  S4  1  0.750000  0.250000  0.570697  1
