# generated using pymatgen
data_Co2SbO6
_symmetry_space_group_name_H-M   'P 1'
_cell_length_a   5.22561979
_cell_length_b   5.26029055
_cell_length_c   21.71373872
_cell_angle_alpha   89.41668392
_cell_angle_beta   91.17443434
_cell_angle_gamma   119.78220884
_symmetry_Int_Tables_number   1
_chemical_formula_structural   Co2SbO6
_chemical_formula_sum   'Co2 Sb1 O6'
_cell_volume   517.92928398
_cell_formula_units_Z   1
loop_
 _symmetry_equiv_pos_site_id
 _symmetry_equiv_pos_as_xyz
  1  'x, y, z'
loop_
 _atom_site_type_symbol
 _atom_site_label
 _atom_site_symmetry_multiplicity
 _atom_site_fract_x
 _atom_site_fract_y
 _atom_site_fract_z
 _atom_site_occupancy
  Co  Co1  1  0.336692  0.673384  0.500000  1
  Co  Co2  1  0.663308  0.326616  0.500000  1
  Sb  Sb3  1  -0.000000  -0.000000  0.500000  1
  O  O4  1  0.663369  -0.000000  0.453070  1
  O  O5  1  0.336631  -0.000000  0.546930  1
  O  O6  1  0.659837  0.664658  0.544203  1
  O  O7  1  0.004821  0.664658  0.455797  1
  O  O8  1  0.340163  0.335342  0.455797  1
  O  O9  1  -0.004821  0.335342  0.544203  1
