# generated using pymatgen
data_Zn2Cr3O8
_symmetry_space_group_name_H-M   'P 1'
_cell_length_a   5.13372256
_cell_length_b   5.87641603
_cell_length_c   24.17250100
_cell_angle_alpha   90.00000000
_cell_angle_beta   90.00000000
_cell_angle_gamma   90.00000000
_symmetry_Int_Tables_number   1
_chemical_formula_structural   Zn2Cr3O8
_chemical_formula_sum   'Zn2 Cr3 O8'
_cell_volume   729.23334020
_cell_formula_units_Z   1
loop_
 _symmetry_equiv_pos_site_id
 _symmetry_equiv_pos_as_xyz
  1  'x, y, z'
loop_
 _atom_site_type_symbol
 _atom_site_label
 _atom_site_symmetry_multiplicity
 _atom_site_fract_x
 _atom_site_fract_y
 _atom_site_fract_z
 _atom_site_occupancy
  Zn  Zn1  1  0.258905  -0.000000  0.561131  1
  Zn  Zn2  1  0.280433  -0.000000  0.438869  1
  Cr  Cr3  1  0.269669  0.500000  0.500000  1
  Cr  Cr4  1  0.769669  0.749968  0.500000  1
  Cr  Cr5  1  0.769669  0.250032  0.500000  1
  O  O6  1  0.642661  -0.000000  0.453857  1
  O  O7  1  0.896677  -0.000000  0.546143  1
  O  O8  1  0.604249  0.500000  0.460059  1
  O  O9  1  0.935089  0.500000  0.539941  1
  O  O10  1  0.447388  0.267291  0.541550  1
  O  O11  1  0.447388  0.732709  0.541550  1
  O  O12  1  0.091951  0.267291  0.458450  1
  O  O13  1  0.091951  0.732709  0.458450  1
