# generated using pymatgen
data_FeF4
_symmetry_space_group_name_H-M   'P 1'
_cell_length_a   5.14229462
_cell_length_b   5.13846838
_cell_length_c   22.45896800
_cell_angle_alpha   90.00000000
_cell_angle_beta   90.00000000
_cell_angle_gamma   89.98563093
_symmetry_Int_Tables_number   1
_chemical_formula_structural   FeF4
_chemical_formula_sum   'Fe2 F8'
_cell_volume   593.44493362
_cell_formula_units_Z   2
loop_
 _symmetry_equiv_pos_site_id
 _symmetry_equiv_pos_as_xyz
  1  'x, y, z'
loop_
 _atom_site_type_symbol
 _atom_site_label
 _atom_site_symmetry_multiplicity
 _atom_site_fract_x
 _atom_site_fract_y
 _atom_site_fract_z
 _atom_site_occupancy
  Fe  Fe1  1  0.504304  0.994339  0.499955  1
  Fe  Fe2  1  0.007086  0.506431  0.499919  1
  F  F3  1  0.309265  0.818223  0.447908  1
  F  F4  1  0.328488  0.817250  0.554746  1
  F  F5  1  0.684723  0.177947  0.552589  1
  F  F6  1  0.185659  0.318348  0.552282  1
  F  F7  1  0.669932  0.175661  0.444852  1
  F  F8  1  0.170463  0.323086  0.444724  1
  F  F9  1  0.809707  0.680469  0.448016  1
  F  F10  1  0.829340  0.679164  0.555011  1
