# generated using pymatgen
data_Zr2HBr2
_symmetry_space_group_name_H-M   'P 1'
_cell_length_a   3.54713102
_cell_length_b   5.95092136
_cell_length_c   26.41860600
_cell_angle_alpha   90.00000000
_cell_angle_beta   90.00000000
_cell_angle_gamma   90.00000000
_symmetry_Int_Tables_number   1
_chemical_formula_structural   Zr2HBr2
_chemical_formula_sum   'Zr4 H2 Br4'
_cell_volume   557.66236913
_cell_formula_units_Z   2
loop_
 _symmetry_equiv_pos_site_id
 _symmetry_equiv_pos_as_xyz
  1  'x, y, z'
loop_
 _atom_site_type_symbol
 _atom_site_label
 _atom_site_symmetry_multiplicity
 _atom_site_fract_x
 _atom_site_fract_y
 _atom_site_fract_z
 _atom_site_occupancy
  Zr  Zr1  1  0.750000  0.488083  0.451777  1
  Zr  Zr2  1  0.250000  0.511917  0.548223  1
  Zr  Zr3  1  0.750000  0.011376  0.549674  1
  Zr  Zr4  1  0.250000  0.988624  0.450326  1
  H  H5  1  0.750000  0.137989  0.475325  1
  H  H6  1  0.250000  0.862011  0.524675  1
  Br  Br7  1  0.750000  0.821100  0.380341  1
  Br  Br8  1  0.250000  0.178900  0.619659  1
  Br  Br9  1  0.750000  0.678399  0.621426  1
  Br  Br10  1  0.250000  0.321601  0.378574  1
