# generated using pymatgen
data_NiC2(SN)2
_symmetry_space_group_name_H-M   'P 1'
_cell_length_a   3.69019502
_cell_length_b   5.52248686
_cell_length_c   23.09317770
_cell_angle_alpha   90.00062600
_cell_angle_beta   90.00000000
_cell_angle_gamma   70.48180539
_symmetry_Int_Tables_number   1
_chemical_formula_structural   NiC2(SN)2
_chemical_formula_sum   'Ni1 C2 S2 N2'
_cell_volume   443.57329985
_cell_formula_units_Z   1
loop_
 _symmetry_equiv_pos_site_id
 _symmetry_equiv_pos_as_xyz
  1  'x, y, z'
loop_
 _atom_site_type_symbol
 _atom_site_label
 _atom_site_symmetry_multiplicity
 _atom_site_fract_x
 _atom_site_fract_y
 _atom_site_fract_z
 _atom_site_occupancy
  Ni  Ni1  1  -0.000000  0.000000  0.500000  1
  C  C2  1  0.269293  0.461415  0.446071  1
  C  C3  1  0.730707  0.538585  0.553929  1
  S  S4  1  0.575809  0.848381  0.566620  1
  S  S5  1  0.424191  0.151619  0.433380  1
  N  N6  1  0.159273  0.681455  0.457505  1
  N  N7  1  0.840727  0.318545  0.542495  1
