# generated using pymatgen
data_Mg(BiO2)4
_symmetry_space_group_name_H-M   'P 1'
_cell_length_a   3.36831693
_cell_length_b   10.09544161
_cell_length_c   25.99700200
_cell_angle_alpha   90.00000000
_cell_angle_beta   90.00000000
_cell_angle_gamma   89.89919058
_symmetry_Int_Tables_number   1
_chemical_formula_structural   Mg(BiO2)4
_chemical_formula_sum   'Mg1 Bi4 O8'
_cell_volume   884.01750497
_cell_formula_units_Z   1
loop_
 _symmetry_equiv_pos_site_id
 _symmetry_equiv_pos_as_xyz
  1  'x, y, z'
loop_
 _atom_site_type_symbol
 _atom_site_label
 _atom_site_symmetry_multiplicity
 _atom_site_fract_x
 _atom_site_fract_y
 _atom_site_fract_z
 _atom_site_occupancy
  Mg  Mg1  1  0.528695  0.021888  0.522931  1
  Bi  Bi2  1  0.026664  0.823737  0.441548  1
  Bi  Bi3  1  0.512927  0.210745  0.422004  1
  Bi  Bi4  1  0.027778  0.336405  0.551705  1
  Bi  Bi5  1  0.526549  0.696502  0.555492  1
  O  O6  1  0.027265  0.556009  0.560793  1
  O  O7  1  0.527749  0.318797  0.603304  1
  O  O8  1  0.011938  0.225846  0.371751  1
  O  O9  1  0.525361  0.984552  0.445433  1
  O  O10  1  0.527037  0.691623  0.473517  1
  O  O11  1  0.028343  0.134351  0.528792  1
  O  O12  1  0.025715  0.872439  0.524923  1
  O  O13  1  0.528156  0.371383  0.497808  1
