# generated using pymatgen
data_Bi2Te2S
_symmetry_space_group_name_H-M   'P 1'
_cell_length_a   4.28828515
_cell_length_b   4.28828502
_cell_length_c   27.06945800
_cell_angle_alpha   90.00000000
_cell_angle_beta   90.00000000
_cell_angle_gamma   59.99999895
_symmetry_Int_Tables_number   1
_chemical_formula_structural   Bi2Te2S
_chemical_formula_sum   'Bi2 Te2 S1'
_cell_volume   431.09946779
_cell_formula_units_Z   1
loop_
 _symmetry_equiv_pos_site_id
 _symmetry_equiv_pos_as_xyz
  1  'x, y, z'
loop_
 _atom_site_type_symbol
 _atom_site_label
 _atom_site_symmetry_multiplicity
 _atom_site_fract_x
 _atom_site_fract_y
 _atom_site_fract_z
 _atom_site_occupancy
  Bi  Bi1  1  0.333333  0.333333  0.435550  1
  Bi  Bi2  1  0.666667  0.666667  0.564450  1
  Te  Te3  1  0.666667  0.666667  0.369185  1
  Te  Te4  1  0.333333  0.333333  0.630815  1
  S  S5  1  0.000000  -0.000000  0.500000  1
