# generated using pymatgen
data_K2RuBr6
_symmetry_space_group_name_H-M   'P 1'
_cell_length_a   7.11271233
_cell_length_b   10.10077042
_cell_length_c   27.70849900
_cell_angle_alpha   90.00000000
_cell_angle_beta   90.00000000
_cell_angle_gamma   90.00000000
_symmetry_Int_Tables_number   1
_chemical_formula_structural   K2RuBr6
_chemical_formula_sum   'K4 Ru2 Br12'
_cell_volume   1990.68591944
_cell_formula_units_Z   2
loop_
 _symmetry_equiv_pos_site_id
 _symmetry_equiv_pos_as_xyz
  1  'x, y, z'
loop_
 _atom_site_type_symbol
 _atom_site_label
 _atom_site_symmetry_multiplicity
 _atom_site_fract_x
 _atom_site_fract_y
 _atom_site_fract_z
 _atom_site_occupancy
  K  K1  1  0.830222  0.738418  0.554241  1
  K  K2  1  0.330222  0.238418  0.445759  1
  K  K3  1  0.330222  0.761582  0.445759  1
  K  K4  1  0.830222  0.261582  0.554241  1
  Ru  Ru5  1  0.309211  0.500000  0.568614  1
  Ru  Ru6  1  0.809211  -0.000000  0.431386  1
  Br  Br7  1  0.027845  0.500000  0.621971  1
  Br  Br8  1  0.810068  0.249577  0.430665  1
  Br  Br9  1  0.072808  -0.000000  0.493180  1
  Br  Br10  1  0.310068  0.250423  0.569335  1
  Br  Br11  1  0.094575  0.500000  0.495027  1
  Br  Br12  1  0.810068  0.750423  0.430665  1
  Br  Br13  1  0.527845  -0.000000  0.378029  1
  Br  Br14  1  0.572808  0.500000  0.506820  1
  Br  Br15  1  0.594575  -0.000000  0.504973  1
  Br  Br16  1  0.310068  0.749577  0.569335  1
  Br  Br17  1  0.033090  -0.000000  0.364480  1
  Br  Br18  1  0.533090  0.500000  0.635520  1
