# generated using pymatgen
data_SmSi3Ni
_symmetry_space_group_name_H-M   'P 1'
_cell_length_a   3.85952635
_cell_length_b   3.86777110
_cell_length_c   28.24445500
_cell_angle_alpha   90.00000000
_cell_angle_beta   90.00000000
_cell_angle_gamma   90.00000000
_symmetry_Int_Tables_number   1
_chemical_formula_structural   SmSi3Ni
_chemical_formula_sum   'Sm2 Si6 Ni2'
_cell_volume   421.62657200
_cell_formula_units_Z   2
loop_
 _symmetry_equiv_pos_site_id
 _symmetry_equiv_pos_as_xyz
  1  'x, y, z'
loop_
 _atom_site_type_symbol
 _atom_site_label
 _atom_site_symmetry_multiplicity
 _atom_site_fract_x
 _atom_site_fract_y
 _atom_site_fract_z
 _atom_site_occupancy
  Sm  Sm1  1  0.250000  0.500000  0.436004  1
  Sm  Sm2  1  0.750000  0.500000  0.563996  1
  Si  Si3  1  0.250000  0.000000  0.342879  1
  Si  Si4  1  0.750000  0.000000  0.657121  1
  Si  Si5  1  0.250000  0.000000  0.524816  1
  Si  Si6  1  0.750000  0.000000  0.475184  1
  Si  Si7  1  0.750000  0.500000  0.342941  1
  Si  Si8  1  0.250000  0.500000  0.657059  1
  Ni  Ni9  1  0.250000  -0.000000  0.607657  1
  Ni  Ni10  1  0.750000  0.000000  0.392343  1
