# generated using pymatgen
data_RbFe2Te3
_symmetry_space_group_name_H-M   'P 1'
_cell_length_a   5.55279436
_cell_length_b   9.74923630
_cell_length_c   24.07699500
_cell_angle_alpha   90.00000000
_cell_angle_beta   90.00000000
_cell_angle_gamma   90.00000000
_symmetry_Int_Tables_number   1
_chemical_formula_structural   RbFe2Te3
_chemical_formula_sum   'Rb2 Fe4 Te6'
_cell_volume   1303.42026734
_cell_formula_units_Z   2
loop_
 _symmetry_equiv_pos_site_id
 _symmetry_equiv_pos_as_xyz
  1  'x, y, z'
loop_
 _atom_site_type_symbol
 _atom_site_label
 _atom_site_symmetry_multiplicity
 _atom_site_fract_x
 _atom_site_fract_y
 _atom_site_fract_z
 _atom_site_occupancy
  Rb  Rb1  1  0.750000  0.500000  0.430488  1
  Rb  Rb2  1  0.250000  0.500000  0.569512  1
  Fe  Fe3  1  0.500000  0.870993  0.500000  1
  Fe  Fe4  1  -0.000000  0.129007  0.500000  1
  Fe  Fe5  1  -0.000000  0.870993  0.500000  1
  Fe  Fe6  1  0.500000  0.129007  0.500000  1
  Te  Te7  1  0.250000  -0.000000  0.575839  1
  Te  Te8  1  0.750000  -0.000000  0.424160  1
  Te  Te9  1  0.250000  0.734560  0.429924  1
  Te  Te10  1  0.750000  0.265440  0.570076  1
  Te  Te11  1  0.750000  0.734560  0.570076  1
  Te  Te12  1  0.250000  0.265440  0.429924  1
