# generated using pymatgen
data_UCO5
_symmetry_space_group_name_H-M   'P 1'
_cell_length_a   4.33457133
_cell_length_b   4.88321065
_cell_length_c   23.58608539
_cell_angle_alpha   90.00000000
_cell_angle_beta   90.00000000
_cell_angle_gamma   90.00000000
_symmetry_Int_Tables_number   1
_chemical_formula_structural   UCO5
_chemical_formula_sum   'U1 C1 O5'
_cell_volume   499.23782188
_cell_formula_units_Z   1
loop_
 _symmetry_equiv_pos_site_id
 _symmetry_equiv_pos_as_xyz
  1  'x, y, z'
loop_
 _atom_site_type_symbol
 _atom_site_label
 _atom_site_symmetry_multiplicity
 _atom_site_fract_x
 _atom_site_fract_y
 _atom_site_fract_z
 _atom_site_occupancy
  U  U1  1  0.761940  0.000000  0.500000  1
  C  C2  1  0.376046  0.500000  0.500000  1
  O  O3  1  0.245691  0.735351  0.500000  1
  O  O4  1  0.756221  0.000000  0.575899  1
  O  O5  1  0.756221  0.000000  0.424101  1
  O  O6  1  0.676111  0.500000  0.500000  1
  O  O7  1  0.245691  0.264649  0.500000  1
