# generated using pymatgen
data_Al(HO)3
_symmetry_space_group_name_H-M   'P 1'
_cell_length_a   4.92554103
_cell_length_b   5.11308357
_cell_length_c   23.93169900
_cell_angle_alpha   90.00000000
_cell_angle_beta   90.00000000
_cell_angle_gamma   61.20609017
_symmetry_Int_Tables_number   1
_chemical_formula_structural   Al(HO)3
_chemical_formula_sum   'Al2 H6 O6'
_cell_volume   528.19205136
_cell_formula_units_Z   2
loop_
 _symmetry_equiv_pos_site_id
 _symmetry_equiv_pos_as_xyz
  1  'x, y, z'
loop_
 _atom_site_type_symbol
 _atom_site_label
 _atom_site_symmetry_multiplicity
 _atom_site_fract_x
 _atom_site_fract_y
 _atom_site_fract_z
 _atom_site_occupancy
  Al  Al1  1  0.707515  0.674867  0.498713  1
  Al  Al2  1  0.382382  0.325133  0.498713  1
  H  H3  1  0.986060  0.229069  0.443468  1
  H  H4  1  0.215129  0.770931  0.443468  1
  H  H5  1  0.635899  -0.000000  0.417052  1
  H  H6  1  0.034794  0.603429  0.581176  1
  H  H7  1  0.638223  0.396571  0.581176  1
  H  H8  1  0.208931  -0.000000  0.545758  1
  O  O9  1  0.038063  0.382578  0.454856  1
  O  O10  1  0.420641  0.617422  0.454856  1
  O  O11  1  0.698690  -0.000000  0.455658  1
  O  O12  1  0.050506  0.637646  0.541722  1
  O  O13  1  0.688152  0.362354  0.541722  1
  O  O14  1  0.407241  -0.000000  0.541661  1
