# generated using pymatgen
data_NdBr3
_symmetry_space_group_name_H-M   'P 1'
_cell_length_a   4.09757383
_cell_length_b   9.19675426
_cell_length_c   24.38894300
_cell_angle_alpha   90.00000000
_cell_angle_beta   90.00000000
_cell_angle_gamma   90.00000000
_symmetry_Int_Tables_number   1
_chemical_formula_structural   NdBr3
_chemical_formula_sum   'Nd2 Br6'
_cell_volume   919.08218549
_cell_formula_units_Z   2
loop_
 _symmetry_equiv_pos_site_id
 _symmetry_equiv_pos_as_xyz
  1  'x, y, z'
loop_
 _atom_site_type_symbol
 _atom_site_label
 _atom_site_symmetry_multiplicity
 _atom_site_fract_x
 _atom_site_fract_y
 _atom_site_fract_z
 _atom_site_occupancy
  Nd  Nd1  1  0.500000  0.000000  0.505486  1
  Nd  Nd2  1  0.000000  0.500000  0.494514  1
  Br  Br3  1  0.000000  0.183903  0.444877  1
  Br  Br4  1  0.500000  0.316097  0.555123  1
  Br  Br5  1  0.500000  0.500000  0.409960  1
  Br  Br6  1  -0.000000  0.000000  0.590040  1
  Br  Br7  1  0.000000  0.816097  0.444877  1
  Br  Br8  1  0.500000  0.683903  0.555123  1
