# generated using pymatgen
data_Na2ZnCl4O3
_symmetry_space_group_name_H-M   'P 1'
_cell_length_a   6.78480597
_cell_length_b   6.78480578
_cell_length_c   22.75872200
_cell_angle_alpha   90.00000000
_cell_angle_beta   90.00000000
_cell_angle_gamma   120.19727386
_symmetry_Int_Tables_number   1
_chemical_formula_structural   Na2ZnCl4O3
_chemical_formula_sum   'Na2 Zn1 Cl4 O3'
_cell_volume   905.49613447
_cell_formula_units_Z   1
loop_
 _symmetry_equiv_pos_site_id
 _symmetry_equiv_pos_as_xyz
  1  'x, y, z'
loop_
 _atom_site_type_symbol
 _atom_site_label
 _atom_site_symmetry_multiplicity
 _atom_site_fract_x
 _atom_site_fract_y
 _atom_site_fract_z
 _atom_site_occupancy
  Na  Na1  1  0.665678  0.330636  0.488782  1
  Na  Na2  1  0.330636  0.665678  0.488782  1
  Zn  Zn3  1  0.999359  0.999359  0.536252  1
  Cl  Cl4  1  0.001550  0.001550  0.431599  1
  Cl  Cl5  1  0.678246  -0.000208  0.564738  1
  Cl  Cl6  1  -0.000208  0.678246  0.564738  1
  Cl  Cl7  1  0.323384  0.323384  0.563434  1
  O  O8  1  0.645510  0.998290  0.454298  1
  O  O9  1  0.998290  0.645510  0.454298  1
  O  O10  1  0.360661  0.360661  0.453078  1
