# generated using pymatgen
data_AgCNO
_symmetry_space_group_name_H-M   'P 1'
_cell_length_a   3.57047898
_cell_length_b   6.50688016
_cell_length_c   26.92667000
_cell_angle_alpha   90.00000000
_cell_angle_beta   90.00000000
_cell_angle_gamma   90.00000000
_symmetry_Int_Tables_number   1
_chemical_formula_structural   AgCNO
_chemical_formula_sum   'Ag2 C2 N2 O2'
_cell_volume   625.57867625
_cell_formula_units_Z   2
loop_
 _symmetry_equiv_pos_site_id
 _symmetry_equiv_pos_as_xyz
  1  'x, y, z'
loop_
 _atom_site_type_symbol
 _atom_site_label
 _atom_site_symmetry_multiplicity
 _atom_site_fract_x
 _atom_site_fract_y
 _atom_site_fract_z
 _atom_site_occupancy
  Ag  Ag1  1  0.500000  0.500000  0.500000  1
  Ag  Ag2  1  0.500000  0.000000  0.500000  1
  C  C3  1  0.752487  0.250000  0.587136  1
  C  C4  1  0.247513  0.750000  0.412864  1
  N  N5  1  0.364493  0.750000  0.455498  1
  N  N6  1  0.635507  0.250000  0.544502  1
  O  O7  1  0.128590  0.750000  0.372008  1
  O  O8  1  0.871410  0.250000  0.627992  1
