# generated using pymatgen
data_TeHO3
_symmetry_space_group_name_H-M   'P 1'
_cell_length_a   4.65235532
_cell_length_b   8.06804526
_cell_length_c   25.16027754
_cell_angle_alpha   88.92491831
_cell_angle_beta   89.92721829
_cell_angle_gamma   89.88357539
_symmetry_Int_Tables_number   1
_chemical_formula_structural   TeHO3
_chemical_formula_sum   'Te4 H4 O12'
_cell_volume   944.23250348
_cell_formula_units_Z   4
loop_
 _symmetry_equiv_pos_site_id
 _symmetry_equiv_pos_as_xyz
  1  'x, y, z'
loop_
 _atom_site_type_symbol
 _atom_site_label
 _atom_site_symmetry_multiplicity
 _atom_site_fract_x
 _atom_site_fract_y
 _atom_site_fract_z
 _atom_site_occupancy
  Te  Te1  1  0.997618  0.457331  0.554493  1
  Te  Te2  1  0.498025  0.542994  0.445434  1
  Te  Te3  1  0.639101  0.861100  0.529634  1
  Te  Te4  1  0.138828  0.139997  0.470003  1
  H  H5  1  0.418281  0.570227  0.601687  1
  H  H6  1  0.921765  0.432099  0.398159  1
  H  H7  1  0.585295  0.347170  0.605854  1
  H  H8  1  0.083747  0.658261  0.395702  1
  O  O9  1  0.276402  0.483190  0.611668  1
  O  O10  1  0.776457  0.517451  0.388169  1
  O  O11  1  0.014092  0.953519  0.526170  1
  O  O12  1  0.514185  0.046999  0.473297  1
  O  O13  1  0.281086  0.349674  0.425871  1
  O  O14  1  0.781082  0.651449  0.573988  1
  O  O15  1  0.756227  0.402247  0.491288  1
  O  O16  1  0.255818  0.597927  0.508619  1
  O  O17  1  0.220812  0.262474  0.533468  1
  O  O18  1  0.721756  0.737248  0.466429  1
  O  O19  1  0.785091  0.305985  0.599171  1
  O  O20  1  0.285904  0.695561  0.400897  1
