# generated using pymatgen
data_CaMg2
_symmetry_space_group_name_H-M   'P 1'
_cell_length_a   3.41517055
_cell_length_b   5.51087708
_cell_length_c   27.28373800
_cell_angle_alpha   90.00000000
_cell_angle_beta   90.00000000
_cell_angle_gamma   90.00000000
_symmetry_Int_Tables_number   1
_chemical_formula_structural   CaMg2
_chemical_formula_sum   'Ca2 Mg4'
_cell_volume   513.49591310
_cell_formula_units_Z   2
loop_
 _symmetry_equiv_pos_site_id
 _symmetry_equiv_pos_as_xyz
  1  'x, y, z'
loop_
 _atom_site_type_symbol
 _atom_site_label
 _atom_site_symmetry_multiplicity
 _atom_site_fract_x
 _atom_site_fract_y
 _atom_site_fract_z
 _atom_site_occupancy
  Ca  Ca1  1  0.000000  -0.000000  0.526511  1
  Ca  Ca2  1  0.500000  0.500000  0.473489  1
  Mg  Mg3  1  0.500000  -0.000000  0.405337  1
  Mg  Mg4  1  0.500000  0.000000  0.631702  1
  Mg  Mg5  1  -0.000000  0.500000  0.368298  1
  Mg  Mg6  1  -0.000000  0.500000  0.594663  1
