# generated using pymatgen
data_VH2O3
_symmetry_space_group_name_H-M   'P 1'
_cell_length_a   3.72191188
_cell_length_b   6.15575630
_cell_length_c   23.44999126
_cell_angle_alpha   90.49277293
_cell_angle_beta   90.00000000
_cell_angle_gamma   90.00000000
_symmetry_Int_Tables_number   1
_chemical_formula_structural   VH2O3
_chemical_formula_sum   'V2 H4 O6'
_cell_volume   537.24715920
_cell_formula_units_Z   2
loop_
 _symmetry_equiv_pos_site_id
 _symmetry_equiv_pos_as_xyz
  1  'x, y, z'
loop_
 _atom_site_type_symbol
 _atom_site_label
 _atom_site_symmetry_multiplicity
 _atom_site_fract_x
 _atom_site_fract_y
 _atom_site_fract_z
 _atom_site_occupancy
  V  V1  1  0.056948  0.250000  0.500000  1
  V  V2  1  0.943052  0.750000  0.500000  1
  H  H3  1  0.794621  0.484788  0.581166  1
  H  H4  1  0.794621  0.015212  0.418834  1
  H  H5  1  0.205379  0.515212  0.418834  1
  H  H6  1  0.205379  0.984788  0.581166  1
  O  O7  1  0.515428  0.250000  0.500000  1
  O  O8  1  0.996119  0.498980  0.443501  1
  O  O9  1  0.484572  0.750000  0.500000  1
  O  O10  1  0.003881  0.501020  0.556499  1
  O  O11  1  0.996119  0.001020  0.556499  1
  O  O12  1  0.003881  0.998980  0.443501  1
