# generated using pymatgen
data_In2Se3
_symmetry_space_group_name_H-M   'P 1'
_cell_length_a   3.99922453
_cell_length_b   3.99922384
_cell_length_c   26.45675600
_cell_angle_alpha   90.00000000
_cell_angle_beta   90.00000000
_cell_angle_gamma   120.00000566
_symmetry_Int_Tables_number   1
_chemical_formula_structural   In2Se3
_chemical_formula_sum   'In2 Se3'
_cell_volume   366.45335213
_cell_formula_units_Z   1
loop_
 _symmetry_equiv_pos_site_id
 _symmetry_equiv_pos_as_xyz
  1  'x, y, z'
loop_
 _atom_site_type_symbol
 _atom_site_label
 _atom_site_symmetry_multiplicity
 _atom_site_fract_x
 _atom_site_fract_y
 _atom_site_fract_z
 _atom_site_occupancy
  In  In1  1  0.666667  0.333333  0.428891  1
  In  In2  1  0.333333  0.666667  0.571109  1
  Se  Se3  1  0.000000  -0.000000  0.500000  1
  Se  Se4  1  0.666667  0.333333  0.622181  1
  Se  Se5  1  0.333333  0.666667  0.377819  1
