# generated using pymatgen
data_TlPt2S3
_symmetry_space_group_name_H-M   'P 1'
_cell_length_a   7.10785570
_cell_length_b   7.10785517
_cell_length_c   24.60868200
_cell_angle_alpha   90.00000000
_cell_angle_beta   90.00000000
_cell_angle_gamma   119.99999781
_symmetry_Int_Tables_number   1
_chemical_formula_structural   TlPt2S3
_chemical_formula_sum   'Tl2 Pt4 S6'
_cell_volume   1076.70360703
_cell_formula_units_Z   2
loop_
 _symmetry_equiv_pos_site_id
 _symmetry_equiv_pos_as_xyz
  1  'x, y, z'
loop_
 _atom_site_type_symbol
 _atom_site_label
 _atom_site_symmetry_multiplicity
 _atom_site_fract_x
 _atom_site_fract_y
 _atom_site_fract_z
 _atom_site_occupancy
  Tl  Tl1  1  0.333333  0.666667  0.591517  1
  Tl  Tl2  1  0.666667  0.333333  0.408483  1
  Pt  Pt3  1  0.000000  0.000000  0.500000  1
  Pt  Pt4  1  0.000000  0.500000  0.500000  1
  Pt  Pt5  1  0.500000  0.500000  0.500000  1
  Pt  Pt6  1  0.500000  0.000000  0.500000  1
  S  S7  1  0.169157  0.338314  0.450560  1
  S  S8  1  0.169157  0.830843  0.450560  1
  S  S9  1  0.661686  0.830843  0.450560  1
  S  S10  1  0.338314  0.169157  0.549440  1
  S  S11  1  0.830843  0.661686  0.549440  1
  S  S12  1  0.830843  0.169157  0.549440  1
