# generated using pymatgen
data_HoBiO3
_symmetry_space_group_name_H-M   'P 1'
_cell_length_a   6.03159468
_cell_length_b   6.03159384
_cell_length_c   25.18387500
_cell_angle_alpha   90.00000000
_cell_angle_beta   90.00000000
_cell_angle_gamma   60.00000114
_symmetry_Int_Tables_number   1
_chemical_formula_structural   HoBiO3
_chemical_formula_sum   'Ho2 Bi2 O6'
_cell_volume   793.44610142
_cell_formula_units_Z   2
loop_
 _symmetry_equiv_pos_site_id
 _symmetry_equiv_pos_as_xyz
  1  'x, y, z'
loop_
 _atom_site_type_symbol
 _atom_site_label
 _atom_site_symmetry_multiplicity
 _atom_site_fract_x
 _atom_site_fract_y
 _atom_site_fract_z
 _atom_site_occupancy
  Ho  Ho1  1  0.666667  0.666667  0.518323  1
  Ho  Ho2  1  0.333333  0.333333  0.481677  1
  Bi  Bi3  1  0.666667  0.666667  0.394426  1
  Bi  Bi4  1  0.333333  0.333333  0.605574  1
  O  O5  1  0.408903  0.557754  0.553997  1
  O  O6  1  0.442246  0.966657  0.446003  1
  O  O7  1  0.966657  0.591097  0.446003  1
  O  O8  1  0.033343  0.408903  0.553997  1
  O  O9  1  0.557754  0.033343  0.553997  1
  O  O10  1  0.591097  0.442246  0.446003  1
