# generated using pymatgen
data_LiMnO2
_symmetry_space_group_name_H-M   'P 1'
_cell_length_a   2.89916895
_cell_length_b   4.33393005
_cell_length_c   25.93234600
_cell_angle_alpha   90.00000000
_cell_angle_beta   90.00000000
_cell_angle_gamma   90.00000000
_symmetry_Int_Tables_number   1
_chemical_formula_structural   LiMnO2
_chemical_formula_sum   'Li2 Mn2 O4'
_cell_volume   325.83462257
_cell_formula_units_Z   2
loop_
 _symmetry_equiv_pos_site_id
 _symmetry_equiv_pos_as_xyz
  1  'x, y, z'
loop_
 _atom_site_type_symbol
 _atom_site_label
 _atom_site_symmetry_multiplicity
 _atom_site_fract_x
 _atom_site_fract_y
 _atom_site_fract_z
 _atom_site_occupancy
  Li  Li1  1  0.500000  0.500000  0.372018  1
  Li  Li2  1  0.000000  0.000000  0.627982  1
  Mn  Mn3  1  0.500000  0.500000  0.466670  1
  Mn  Mn4  1  0.000000  -0.000000  0.533330  1
  O  O5  1  0.500000  -0.000000  0.586803  1
  O  O6  1  0.000000  0.500000  0.516998  1
  O  O7  1  0.500000  -0.000000  0.483002  1
  O  O8  1  0.000000  0.500000  0.413197  1
