# generated using pymatgen
data_Sn2SbS2I3
_symmetry_space_group_name_H-M   'P 1'
_cell_length_a   4.22785349
_cell_length_b   16.27127565
_cell_length_c   25.28514600
_cell_angle_alpha   90.00000000
_cell_angle_beta   90.00000000
_cell_angle_gamma   90.00000000
_symmetry_Int_Tables_number   1
_chemical_formula_structural   Sn2SbS2I3
_chemical_formula_sum   'Sn4 Sb2 S4 I6'
_cell_volume   1739.43016463
_cell_formula_units_Z   2
loop_
 _symmetry_equiv_pos_site_id
 _symmetry_equiv_pos_as_xyz
  1  'x, y, z'
loop_
 _atom_site_type_symbol
 _atom_site_label
 _atom_site_symmetry_multiplicity
 _atom_site_fract_x
 _atom_site_fract_y
 _atom_site_fract_z
 _atom_site_occupancy
  Sn  Sn1  1  0.000000  0.729435  0.566962  1
  Sn  Sn2  1  0.500000  0.229435  0.433038  1
  Sn  Sn3  1  0.500000  0.770565  0.433038  1
  Sn  Sn4  1  0.000000  0.270565  0.566962  1
  Sb  Sb5  1  -0.000000  0.000000  0.530263  1
  Sb  Sb6  1  0.500000  0.500000  0.469737  1
  S  S7  1  0.500000  0.334562  0.511172  1
  S  S8  1  0.500000  0.665438  0.511172  1
  S  S9  1  -0.000000  0.834562  0.488828  1
  S  S10  1  0.000000  0.165438  0.488828  1
  I  I11  1  0.000000  0.386759  0.397434  1
  I  I12  1  0.500000  0.886759  0.602566  1
  I  I13  1  -0.000000  0.500000  0.559535  1
  I  I14  1  0.500000  0.113241  0.602566  1
  I  I15  1  -0.000000  0.613241  0.397434  1
  I  I16  1  0.500000  0.000000  0.440465  1
