# generated using pymatgen
data_SrThBr6
_symmetry_space_group_name_H-M   'P 1'
_cell_length_a   4.22116860
_cell_length_b   9.28863199
_cell_length_c   24.54291918
_cell_angle_alpha   90.00000000
_cell_angle_beta   90.00000000
_cell_angle_gamma   90.00000000
_symmetry_Int_Tables_number   1
_chemical_formula_structural   SrThBr6
_chemical_formula_sum   'Sr1 Th1 Br6'
_cell_volume   962.30041453
_cell_formula_units_Z   1
loop_
 _symmetry_equiv_pos_site_id
 _symmetry_equiv_pos_as_xyz
  1  'x, y, z'
loop_
 _atom_site_type_symbol
 _atom_site_label
 _atom_site_symmetry_multiplicity
 _atom_site_fract_x
 _atom_site_fract_y
 _atom_site_fract_z
 _atom_site_occupancy
  Sr  Sr1  1  0.500000  -0.000000  0.507047  1
  Th  Th2  1  -0.000000  0.500000  0.494119  1
  Br  Br3  1  0.500000  0.674558  0.553706  1
  Br  Br4  1  0.500000  0.325442  0.553706  1
  Br  Br5  1  0.500000  0.500000  0.411389  1
  Br  Br6  1  0.000000  -0.000000  0.591038  1
  Br  Br7  1  0.000000  0.795997  0.444497  1
  Br  Br8  1  0.000000  0.204003  0.444497  1
