# generated using pymatgen
data_Bi3Se4
_symmetry_space_group_name_H-M   'P 1'
_cell_length_a   4.32501976
_cell_length_b   4.32501916
_cell_length_c   30.18159149
_cell_angle_alpha   90.00000000
_cell_angle_beta   90.00000000
_cell_angle_gamma   59.99999540
_symmetry_Int_Tables_number   1
_chemical_formula_structural   Bi3Se4
_chemical_formula_sum   'Bi3 Se4'
_cell_volume   488.93247012
_cell_formula_units_Z   1
loop_
 _symmetry_equiv_pos_site_id
 _symmetry_equiv_pos_as_xyz
  1  'x, y, z'
loop_
 _atom_site_type_symbol
 _atom_site_label
 _atom_site_symmetry_multiplicity
 _atom_site_fract_x
 _atom_site_fract_y
 _atom_site_fract_z
 _atom_site_occupancy
  Bi  Bi1  1  0.000000  -0.000000  0.500000  1
  Bi  Bi2  1  0.333333  0.333333  0.377435  1
  Bi  Bi3  1  0.666667  0.666667  0.622565  1
  Se  Se4  1  -0.000000  0.000000  0.330603  1
  Se  Se5  1  0.000000  -0.000000  0.669397  1
  Se  Se6  1  0.333333  0.333333  0.555371  1
  Se  Se7  1  0.666667  0.666667  0.444629  1
