# generated using pymatgen
data_Sr3Co2S2O5
_symmetry_space_group_name_H-M   'P 1'
_cell_length_a   3.97345896
_cell_length_b   3.97345896
_cell_length_c   28.65057000
_cell_angle_alpha   90.00000000
_cell_angle_beta   90.00000000
_cell_angle_gamma   90.00000000
_symmetry_Int_Tables_number   1
_chemical_formula_structural   Sr3Co2S2O5
_chemical_formula_sum   'Sr3 Co2 S2 O5'
_cell_volume   452.34597483
_cell_formula_units_Z   1
loop_
 _symmetry_equiv_pos_site_id
 _symmetry_equiv_pos_as_xyz
  1  'x, y, z'
loop_
 _atom_site_type_symbol
 _atom_site_label
 _atom_site_symmetry_multiplicity
 _atom_site_fract_x
 _atom_site_fract_y
 _atom_site_fract_z
 _atom_site_occupancy
  Sr  Sr1  1  -0.000000  -0.000000  0.500000  1
  Sr  Sr2  1  -0.000000  -0.000000  0.374349  1
  Sr  Sr3  1  -0.000000  -0.000000  0.625651  1
  Co  Co4  1  0.500000  0.500000  0.434124  1
  Co  Co5  1  0.500000  0.500000  0.565876  1
  S  S6  1  0.500000  0.500000  0.348638  1
  S  S7  1  0.500000  0.500000  0.651362  1
  O  O8  1  0.500000  -0.000000  0.433229  1
  O  O9  1  -0.000000  0.500000  0.433229  1
  O  O10  1  0.500000  -0.000000  0.566771  1
  O  O11  1  -0.000000  0.500000  0.566771  1
  O  O12  1  0.500000  0.500000  0.500000  1
