# generated using pymatgen
data_Li2MnF6
_symmetry_space_group_name_H-M   'P 1'
_cell_length_a   5.77301503
_cell_length_b   5.77301501
_cell_length_c   21.30551101
_cell_angle_alpha   90.02147024
_cell_angle_beta   89.97852975
_cell_angle_gamma   120.00471126
_symmetry_Int_Tables_number   1
_chemical_formula_structural   Li2MnF6
_chemical_formula_sum   'Li2 Mn1 F6'
_cell_volume   614.90397647
_cell_formula_units_Z   1
loop_
 _symmetry_equiv_pos_site_id
 _symmetry_equiv_pos_as_xyz
  1  'x, y, z'
loop_
 _atom_site_type_symbol
 _atom_site_label
 _atom_site_symmetry_multiplicity
 _atom_site_fract_x
 _atom_site_fract_y
 _atom_site_fract_z
 _atom_site_occupancy
  Li  Li1  1  0.666466  0.333516  0.449954  1
  Li  Li2  1  0.333041  0.666941  0.550046  1
  Mn  Mn3  1  -0.000114  0.000362  0.500000  1
  F  F4  1  0.849291  0.699216  0.450474  1
  F  F5  1  0.849295  0.150656  0.450482  1
  F  F6  1  0.698740  0.849767  0.549526  1
  F  F7  1  0.300691  0.150646  0.450489  1
  F  F8  1  0.150180  0.849771  0.549518  1
  F  F9  1  0.150170  0.301167  0.549511  1
