# generated using pymatgen
data_Ca2SiO4
_symmetry_space_group_name_H-M   'P 1'
_cell_length_a   6.31955907
_cell_length_b   6.31955914
_cell_length_c   25.74235100
_cell_angle_alpha   90.00000000
_cell_angle_beta   90.00000000
_cell_angle_gamma   119.65854030
_symmetry_Int_Tables_number   1
_chemical_formula_structural   Ca2SiO4
_chemical_formula_sum   'Ca2 Si1 O4'
_cell_volume   893.38045937
_cell_formula_units_Z   1
loop_
 _symmetry_equiv_pos_site_id
 _symmetry_equiv_pos_as_xyz
  1  'x, y, z'
loop_
 _atom_site_type_symbol
 _atom_site_label
 _atom_site_symmetry_multiplicity
 _atom_site_fract_x
 _atom_site_fract_y
 _atom_site_fract_z
 _atom_site_occupancy
  Ca  Ca1  1  0.334789  0.665211  0.623175  1
  Ca  Ca2  1  0.999069  0.000931  0.449576  1
  Si  Si3  1  0.333342  0.666658  0.483395  1
  O  O4  1  0.331020  0.668981  0.549511  1
  O  O5  1  0.192157  0.807844  0.463808  1
  O  O6  1  0.193375  0.383780  0.465268  1
  O  O7  1  0.616220  0.806625  0.465268  1
