# generated using pymatgen
data_Cu2BiAsO6
_symmetry_space_group_name_H-M   'P 1'
_cell_length_a   5.35847286
_cell_length_b   7.57264546
_cell_length_c   27.67785300
_cell_angle_alpha   90.00000000
_cell_angle_beta   90.00000000
_cell_angle_gamma   90.00000000
_symmetry_Int_Tables_number   1
_chemical_formula_structural   Cu2BiAsO6
_chemical_formula_sum   'Cu4 Bi2 As2 O12'
_cell_volume   1123.10680350
_cell_formula_units_Z   2
loop_
 _symmetry_equiv_pos_site_id
 _symmetry_equiv_pos_as_xyz
  1  'x, y, z'
loop_
 _atom_site_type_symbol
 _atom_site_label
 _atom_site_symmetry_multiplicity
 _atom_site_fract_x
 _atom_site_fract_y
 _atom_site_fract_z
 _atom_site_occupancy
  Cu  Cu1  1  0.000000  0.231263  0.552611  1
  Cu  Cu2  1  0.500000  0.731366  0.447395  1
  Cu  Cu3  1  0.500000  0.475281  0.523756  1
  Cu  Cu4  1  0.000000  0.975298  0.476243  1
  Bi  Bi5  1  0.000000  0.837518  0.373283  1
  Bi  Bi6  1  0.500000  0.337396  0.626713  1
  As  As7  1  0.000000  0.465989  0.444111  1
  As  As8  1  0.500000  0.965891  0.555890  1
  O  O9  1  0.500000  0.746204  0.557857  1
  O  O10  1  0.236507  0.056820  0.527432  1
  O  O11  1  0.736495  0.556930  0.472571  1
  O  O12  1  0.748053  0.392445  0.570477  1
  O  O13  1  0.000000  0.246346  0.442156  1
  O  O14  1  0.763493  0.056820  0.527432  1
  O  O15  1  0.000000  0.556898  0.384990  1
  O  O16  1  0.263505  0.556930  0.472571  1
  O  O17  1  0.251947  0.392445  0.570477  1
  O  O18  1  0.751937  0.892553  0.429514  1
  O  O19  1  0.248063  0.892553  0.429514  1
  O  O20  1  0.500000  0.056766  0.615005  1
