# generated using pymatgen
data_AuSeClO3
_symmetry_space_group_name_H-M   'P 1'
_cell_length_a   9.64620973
_cell_length_b   10.44157645
_cell_length_c   23.09664200
_cell_angle_alpha   90.00000000
_cell_angle_beta   90.00000000
_cell_angle_gamma   81.01462638
_symmetry_Int_Tables_number   1
_chemical_formula_structural   AuSeClO3
_chemical_formula_sum   'Au4 Se4 Cl4 O12'
_cell_volume   2297.78339985
_cell_formula_units_Z   4
loop_
 _symmetry_equiv_pos_site_id
 _symmetry_equiv_pos_as_xyz
  1  'x, y, z'
loop_
 _atom_site_type_symbol
 _atom_site_label
 _atom_site_symmetry_multiplicity
 _atom_site_fract_x
 _atom_site_fract_y
 _atom_site_fract_z
 _atom_site_occupancy
  Au  Au1  1  0.591218  0.183618  0.504149  1
  Au  Au2  1  -0.000000  0.000000  0.500000  1
  Au  Au3  1  0.408782  0.816382  0.495851  1
  Au  Au4  1  -0.000000  0.500000  0.500000  1
  Se  Se5  1  0.863854  0.265502  0.437883  1
  Se  Se6  1  0.719351  0.887188  0.533477  1
  Se  Se7  1  0.280649  0.112812  0.466523  1
  Se  Se8  1  0.136146  0.734498  0.562117  1
  Cl  Cl9  1  0.501592  0.665705  0.563190  1
  Cl  Cl10  1  0.498408  0.334295  0.436810  1
  Cl  Cl11  1  0.211013  0.439664  0.547881  1
  Cl  Cl12  1  0.788987  0.560336  0.452119  1
  O  O13  1  0.953463  0.108664  0.427052  1
  O  O14  1  0.327725  0.958265  0.437385  1
  O  O15  1  0.779692  0.246648  0.503865  1
  O  O16  1  0.166138  0.084192  0.522253  1
  O  O17  1  0.408028  0.121411  0.519813  1
  O  O18  1  0.833862  0.915808  0.477747  1
  O  O19  1  0.672275  0.041735  0.562615  1
  O  O20  1  0.220308  0.753352  0.496135  1
  O  O21  1  0.011207  0.320202  0.467273  1
  O  O22  1  0.591972  0.878589  0.480187  1
  O  O23  1  0.046537  0.891336  0.572948  1
  O  O24  1  0.988793  0.679798  0.532727  1
