# generated using pymatgen
data_AlNiF5
_symmetry_space_group_name_H-M   'P 1'
_cell_length_a   3.70676887
_cell_length_b   7.44752316
_cell_length_c   23.70232000
_cell_angle_alpha   90.00000000
_cell_angle_beta   90.00000000
_cell_angle_gamma   90.00000000
_symmetry_Int_Tables_number   1
_chemical_formula_structural   AlNiF5
_chemical_formula_sum   'Al1 Ni1 F5'
_cell_volume   654.33210058
_cell_formula_units_Z   1
loop_
 _symmetry_equiv_pos_site_id
 _symmetry_equiv_pos_as_xyz
  1  'x, y, z'
loop_
 _atom_site_type_symbol
 _atom_site_label
 _atom_site_symmetry_multiplicity
 _atom_site_fract_x
 _atom_site_fract_y
 _atom_site_fract_z
 _atom_site_occupancy
  Al  Al1  1  0.500000  0.500000  0.500000  1
  Ni  Ni2  1  0.500000  0.000000  0.500000  1
  F  F3  1  0.500000  0.500000  0.572040  1
  F  F4  1  0.500000  0.500000  0.427960  1
  F  F5  1  0.500000  0.232858  0.500000  1
  F  F6  1  0.500000  0.767142  0.500000  1
  F  F7  1  -0.000000  0.500000  0.500000  1
