# generated using pymatgen
data_YMg5
_symmetry_space_group_name_H-M   'P 1'
_cell_length_a   3.17909747
_cell_length_b   6.23767253
_cell_length_c   25.37016700
_cell_angle_alpha   90.00000000
_cell_angle_beta   90.00000000
_cell_angle_gamma   75.23646712
_symmetry_Int_Tables_number   1
_chemical_formula_structural   YMg5
_chemical_formula_sum   'Y1 Mg5'
_cell_volume   486.48541732
_cell_formula_units_Z   1
loop_
 _symmetry_equiv_pos_site_id
 _symmetry_equiv_pos_as_xyz
  1  'x, y, z'
loop_
 _atom_site_type_symbol
 _atom_site_label
 _atom_site_symmetry_multiplicity
 _atom_site_fract_x
 _atom_site_fract_y
 _atom_site_fract_z
 _atom_site_occupancy
  Y  Y1  1  0.348010  0.303981  0.489617  1
  Mg  Mg2  1  0.013016  0.973968  0.407268  1
  Mg  Mg3  1  0.611289  0.777422  0.510247  1
  Mg  Mg4  1  0.963270  0.073459  0.595009  1
  Mg  Mg5  1  0.223763  0.552475  0.606502  1
  Mg  Mg6  1  0.731688  0.536624  0.391357  1
