# generated using pymatgen
data_FeTe(PO4)2
_symmetry_space_group_name_H-M   'P 1'
_cell_length_a   4.88303591
_cell_length_b   9.85980251
_cell_length_c   22.44311800
_cell_angle_alpha   90.00000000
_cell_angle_beta   90.00000000
_cell_angle_gamma   101.18381479
_symmetry_Int_Tables_number   1
_chemical_formula_structural   FeTe(PO4)2
_chemical_formula_sum   'Fe1 Te1 P2 O8'
_cell_volume   1060.02169698
_cell_formula_units_Z   1
loop_
 _symmetry_equiv_pos_site_id
 _symmetry_equiv_pos_as_xyz
  1  'x, y, z'
loop_
 _atom_site_type_symbol
 _atom_site_label
 _atom_site_symmetry_multiplicity
 _atom_site_fract_x
 _atom_site_fract_y
 _atom_site_fract_z
 _atom_site_occupancy
  Fe  Fe1  1  -0.008669  0.751005  0.500000  1
  Te  Te2  1  0.464583  0.191039  0.500000  1
  P  P3  1  0.621602  0.904763  0.500000  1
  P  P4  1  0.915458  0.399225  0.500000  1
  O  O5  1  0.306539  0.909739  0.500000  1
  O  O6  1  0.728211  0.842131  0.444789  1
  O  O7  1  0.728211  0.842131  0.555211  1
  O  O8  1  0.906820  0.549780  0.500000  1
  O  O9  1  0.204637  0.365192  0.500000  1
  O  O10  1  0.720598  0.318754  0.446709  1
  O  O11  1  0.720598  0.318754  0.553291  1
  O  O12  1  0.749112  0.072937  0.500000  1
