# generated using pymatgen
data_AlF3
_symmetry_space_group_name_H-M   'P 1'
_cell_length_a   3.62801831
_cell_length_b   5.63792624
_cell_length_c   22.85186300
_cell_angle_alpha   90.00000000
_cell_angle_beta   90.00000000
_cell_angle_gamma   90.02680091
_symmetry_Int_Tables_number   1
_chemical_formula_structural   AlF3
_chemical_formula_sum   'Al2 F6'
_cell_volume   467.42337216
_cell_formula_units_Z   2
loop_
 _symmetry_equiv_pos_site_id
 _symmetry_equiv_pos_as_xyz
  1  'x, y, z'
loop_
 _atom_site_type_symbol
 _atom_site_label
 _atom_site_symmetry_multiplicity
 _atom_site_fract_x
 _atom_site_fract_y
 _atom_site_fract_z
 _atom_site_occupancy
  Al  Al1  1  0.257692  0.135867  0.500749  1
  Al  Al2  1  0.253868  0.636309  0.499228  1
  F  F3  1  0.256929  0.388604  0.551961  1
  F  F4  1  0.254333  0.383694  0.448009  1
  F  F5  1  0.754360  0.636402  0.498279  1
  F  F6  1  0.757254  0.136264  0.501922  1
  F  F7  1  0.254938  0.883494  0.551879  1
  F  F8  1  0.257458  0.888823  0.447974  1
