# generated using pymatgen
data_Sb2TeSe2
_symmetry_space_group_name_H-M   'P 1'
_cell_length_a   4.14429494
_cell_length_b   4.14429530
_cell_length_c   27.12030443
_cell_angle_alpha   90.00000000
_cell_angle_beta   90.00000000
_cell_angle_gamma   59.99999492
_symmetry_Int_Tables_number   1
_chemical_formula_structural   Sb2TeSe2
_chemical_formula_sum   'Sb2 Te1 Se2'
_cell_volume   403.39129211
_cell_formula_units_Z   1
loop_
 _symmetry_equiv_pos_site_id
 _symmetry_equiv_pos_as_xyz
  1  'x, y, z'
loop_
 _atom_site_type_symbol
 _atom_site_label
 _atom_site_symmetry_multiplicity
 _atom_site_fract_x
 _atom_site_fract_y
 _atom_site_fract_z
 _atom_site_occupancy
  Sb  Sb1  1  0.333333  0.333333  0.429278  1
  Sb  Sb2  1  0.666667  0.666667  0.566382  1
  Te  Te3  1  0.333333  0.333333  0.632635  1
  Se  Se4  1  0.000000  0.000000  0.498021  1
  Se  Se5  1  0.666667  0.666667  0.373683  1
