# generated using pymatgen
data_YCoGe2
_symmetry_space_group_name_H-M   'P 1'
_cell_length_a   4.11495436
_cell_length_b   4.11257782
_cell_length_c   26.68920900
_cell_angle_alpha   90.00000000
_cell_angle_beta   90.00000000
_cell_angle_gamma   90.00000000
_symmetry_Int_Tables_number   1
_chemical_formula_structural   YCoGe2
_chemical_formula_sum   'Y2 Co2 Ge4'
_cell_volume   451.66335299
_cell_formula_units_Z   2
loop_
 _symmetry_equiv_pos_site_id
 _symmetry_equiv_pos_as_xyz
  1  'x, y, z'
loop_
 _atom_site_type_symbol
 _atom_site_label
 _atom_site_symmetry_multiplicity
 _atom_site_fract_x
 _atom_site_fract_y
 _atom_site_fract_z
 _atom_site_occupancy
  Y  Y1  1  0.000000  0.500000  0.406712  1
  Y  Y2  1  0.500000  0.000000  0.593288  1
  Co  Co3  1  -0.000000  0.500000  0.541353  1
  Co  Co4  1  0.500000  -0.000000  0.458647  1
  Ge  Ge5  1  0.000000  0.500000  0.625794  1
  Ge  Ge6  1  0.500000  0.000000  0.374206  1
  Ge  Ge7  1  0.500000  0.500000  0.499992  1
  Ge  Ge8  1  0.000000  0.000000  0.500008  1
