# generated using pymatgen
data_TmBiO3
_symmetry_space_group_name_H-M   'P 1'
_cell_length_a   5.97545904
_cell_length_b   5.97545947
_cell_length_c   25.77184900
_cell_angle_alpha   90.00000000
_cell_angle_beta   90.00000000
_cell_angle_gamma   59.99999681
_symmetry_Int_Tables_number   1
_chemical_formula_structural   TmBiO3
_chemical_formula_sum   'Tm2 Bi2 O6'
_cell_volume   796.92742810
_cell_formula_units_Z   2
loop_
 _symmetry_equiv_pos_site_id
 _symmetry_equiv_pos_as_xyz
  1  'x, y, z'
loop_
 _atom_site_type_symbol
 _atom_site_label
 _atom_site_symmetry_multiplicity
 _atom_site_fract_x
 _atom_site_fract_y
 _atom_site_fract_z
 _atom_site_occupancy
  Tm  Tm1  1  0.333333  0.333333  0.483189  1
  Tm  Tm2  1  0.666667  0.666667  0.516811  1
  Bi  Bi3  1  0.333333  0.333333  0.602961  1
  Bi  Bi4  1  0.666667  0.666667  0.397039  1
  O  O5  1  0.446370  0.584825  0.447857  1
  O  O6  1  0.031196  0.553630  0.552143  1
  O  O7  1  0.415175  0.031196  0.552143  1
  O  O8  1  0.584825  0.968804  0.447857  1
  O  O9  1  0.968804  0.446370  0.447857  1
  O  O10  1  0.553630  0.415175  0.552143  1
