# generated using pymatgen
data_CaP2(HO)4
_symmetry_space_group_name_H-M   'P 1'
_cell_length_a   5.67249426
_cell_length_b   6.62607839
_cell_length_c   26.56556000
_cell_angle_alpha   90.00000000
_cell_angle_beta   90.00000000
_cell_angle_gamma   90.00000000
_symmetry_Int_Tables_number   1
_chemical_formula_structural   CaP2(HO)4
_chemical_formula_sum   'Ca2 P4 H8 O8'
_cell_volume   998.50354213
_cell_formula_units_Z   2
loop_
 _symmetry_equiv_pos_site_id
 _symmetry_equiv_pos_as_xyz
  1  'x, y, z'
loop_
 _atom_site_type_symbol
 _atom_site_label
 _atom_site_symmetry_multiplicity
 _atom_site_fract_x
 _atom_site_fract_y
 _atom_site_fract_z
 _atom_site_occupancy
  Ca  Ca1  1  0.165810  0.250000  0.500000  1
  Ca  Ca2  1  0.834190  0.750000  0.500000  1
  P  P3  1  0.683520  0.347945  0.579326  1
  P  P4  1  0.683520  0.152055  0.420674  1
  P  P5  1  0.316480  0.652055  0.420674  1
  P  P6  1  0.316480  0.847945  0.579326  1
  H  H7  1  0.686490  0.470151  0.623274  1
  H  H8  1  0.686489  0.029849  0.376726  1
  H  H9  1  0.313511  0.529849  0.376726  1
  H  H10  1  0.313511  0.970151  0.623274  1
  H  H11  1  0.772993  0.159973  0.596278  1
  H  H12  1  0.772992  0.340027  0.403722  1
  H  H13  1  0.227008  0.840027  0.403722  1
  H  H14  1  0.227008  0.659973  0.596278  1
  O  O15  1  0.862429  0.066806  0.458215  1
  O  O16  1  0.862429  0.433194  0.541785  1
  O  O17  1  0.568205  0.823275  0.561715  1
  O  O18  1  0.568205  0.676725  0.438285  1
  O  O19  1  0.431795  0.176725  0.438285  1
  O  O20  1  0.431795  0.323275  0.561715  1
  O  O21  1  0.137571  0.566806  0.458215  1
  O  O22  1  0.137571  0.933194  0.541785  1
