# generated using pymatgen
data_DyZnPO
_symmetry_space_group_name_H-M   'P 1'
_cell_length_a   3.89057160
_cell_length_b   3.89057163
_cell_length_c   28.32725600
_cell_angle_alpha   90.00000000
_cell_angle_beta   90.00000000
_cell_angle_gamma   59.99999190
_symmetry_Int_Tables_number   1
_chemical_formula_structural   DyZnPO
_chemical_formula_sum   'Dy2 Zn2 P2 O2'
_cell_volume   371.33161912
_cell_formula_units_Z   2
loop_
 _symmetry_equiv_pos_site_id
 _symmetry_equiv_pos_as_xyz
  1  'x, y, z'
loop_
 _atom_site_type_symbol
 _atom_site_label
 _atom_site_symmetry_multiplicity
 _atom_site_fract_x
 _atom_site_fract_y
 _atom_site_fract_z
 _atom_site_occupancy
  Dy  Dy1  1  0.333333  0.333333  0.450134  1
  Dy  Dy2  1  0.666667  0.666667  0.549866  1
  Zn  Zn3  1  0.333333  0.333333  0.640442  1
  Zn  Zn4  1  0.666667  0.666667  0.359558  1
  P  P5  1  0.000000  0.000000  0.376824  1
  P  P6  1  0.000000  -0.000000  0.623176  1
  O  O7  1  0.333333  0.333333  0.530077  1
  O  O8  1  0.666667  0.666667  0.469923  1
