# generated using pymatgen
data_TlBS2
_symmetry_space_group_name_H-M   'P 1'
_cell_length_a   10.00951300
_cell_length_b   10.00951291
_cell_length_c   22.76016276
_cell_angle_alpha   90.00000000
_cell_angle_beta   90.00000000
_cell_angle_gamma   59.99999652
_symmetry_Int_Tables_number   1
_chemical_formula_structural   TlBS2
_chemical_formula_sum   'Tl6 B6 S12'
_cell_volume   1974.83980294
_cell_formula_units_Z   6
loop_
 _symmetry_equiv_pos_site_id
 _symmetry_equiv_pos_as_xyz
  1  'x, y, z'
loop_
 _atom_site_type_symbol
 _atom_site_label
 _atom_site_symmetry_multiplicity
 _atom_site_fract_x
 _atom_site_fract_y
 _atom_site_fract_z
 _atom_site_occupancy
  Tl  Tl1  1  0.527495  0.945009  0.566433  1
  Tl  Tl2  1  0.945009  0.527495  0.566433  1
  Tl  Tl3  1  0.527495  0.527495  0.566433  1
  Tl  Tl4  1  0.805838  0.388324  0.433567  1
  Tl  Tl5  1  0.388324  0.805838  0.433567  1
  Tl  Tl6  1  0.805838  0.805838  0.433567  1
  B  B7  1  0.795586  0.102207  0.529488  1
  B  B8  1  0.102207  0.102207  0.529488  1
  B  B9  1  0.102207  0.795586  0.529488  1
  B  B10  1  0.231126  0.231126  0.470512  1
  B  B11  1  0.231126  0.537747  0.470512  1
  B  B12  1  0.537747  0.231126  0.470512  1
  S  S13  1  0.750550  0.124725  0.443782  1
  S  S14  1  0.124725  0.750550  0.443782  1
  S  S15  1  0.124725  0.124725  0.443782  1
  S  S16  1  0.208609  0.582784  0.556218  1
  S  S17  1  0.208609  0.208609  0.556218  1
  S  S18  1  0.582784  0.208609  0.556218  1
  S  S19  1  0.440083  0.119834  0.444036  1
  S  S20  1  0.440083  0.440083  0.444036  1
  S  S21  1  0.119834  0.440083  0.444036  1
  S  S22  1  0.213499  0.893250  0.555964  1
  S  S23  1  0.893250  0.213499  0.555964  1
  S  S24  1  0.893250  0.893250  0.555964  1
