# generated using pymatgen
data_H4W
_symmetry_space_group_name_H-M   'P 1'
_cell_length_a   3.10121735
_cell_length_b   3.10121735
_cell_length_c   25.37645700
_cell_angle_alpha   90.00000000
_cell_angle_beta   90.00000000
_cell_angle_gamma   90.00000000
_symmetry_Int_Tables_number   1
_chemical_formula_structural   H4W
_chemical_formula_sum   'H8 W2'
_cell_volume   244.05931996
_cell_formula_units_Z   2
loop_
 _symmetry_equiv_pos_site_id
 _symmetry_equiv_pos_as_xyz
  1  'x, y, z'
loop_
 _atom_site_type_symbol
 _atom_site_label
 _atom_site_symmetry_multiplicity
 _atom_site_fract_x
 _atom_site_fract_y
 _atom_site_fract_z
 _atom_site_occupancy
  H  H1  1  0.500000  -0.000000  0.535102  1
  H  H2  1  -0.000000  0.500000  0.464898  1
  H  H3  1  0.500000  0.000000  0.393286  1
  H  H4  1  -0.000000  0.500000  0.606714  1
  H  H5  1  -0.000000  -0.000000  0.579369  1
  H  H6  1  0.500000  0.500000  0.420631  1
  H  H7  1  -0.000000  -0.000000  0.420631  1
  H  H8  1  0.500000  0.500000  0.579369  1
  W  W9  1  0.500000  -0.000000  0.461765  1
  W  W10  1  0.000000  0.500000  0.538235  1
