# generated using pymatgen
data_Li2NbP4O13
_symmetry_space_group_name_H-M   'P 1'
_cell_length_a   5.15082751
_cell_length_b   8.02343208
_cell_length_c   32.87910800
_cell_angle_alpha   90.00000000
_cell_angle_beta   90.00000000
_cell_angle_gamma   99.39741712
_symmetry_Int_Tables_number   1
_chemical_formula_structural   Li2NbP4O13
_chemical_formula_sum   'Li4 Nb2 P8 O26'
_cell_volume   1340.56942960
_cell_formula_units_Z   2
loop_
 _symmetry_equiv_pos_site_id
 _symmetry_equiv_pos_as_xyz
  1  'x, y, z'
loop_
 _atom_site_type_symbol
 _atom_site_label
 _atom_site_symmetry_multiplicity
 _atom_site_fract_x
 _atom_site_fract_y
 _atom_site_fract_z
 _atom_site_occupancy
  Li  Li1  1  0.349271  0.493986  0.507042  1
  Li  Li2  1  0.214415  0.144267  0.492958  1
  Li  Li3  1  0.725269  0.362813  0.683472  1
  Li  Li4  1  0.838418  0.275440  0.316528  1
  Nb  Nb5  1  0.805390  0.961264  0.398834  1
  Nb  Nb6  1  0.758296  0.676989  0.601166  1
  P  P7  1  0.300543  0.870389  0.556071  1
  P  P8  1  0.939512  0.583921  0.380352  1
  P  P9  1  0.602072  0.319625  0.428909  1
  P  P10  1  0.961614  0.318628  0.571091  1
  P  P11  1  0.347771  0.150336  0.353776  1
  P  P12  1  0.263144  0.767864  0.443929  1
  P  P13  1  0.624175  0.054332  0.619648  1
  P  P14  1  0.215916  0.487918  0.646224  1
  O  O15  1  0.450478  0.719135  0.562826  1
  O  O16  1  0.394459  0.278248  0.392857  1
  O  O17  1  0.795047  0.193928  0.428152  1
  O  O18  1  0.456490  0.239502  0.316187  1
  O  O19  1  0.353264  0.988761  0.597054  1
  O  O20  1  0.210422  0.649493  0.402946  1
  O  O21  1  0.002764  0.800117  0.560231  1
  O  O22  1  0.560923  0.838137  0.439769  1
  O  O23  1  0.520231  0.542399  0.646054  1
  O  O24  1  0.169227  0.360006  0.607143  1
  O  O25  1  0.755945  0.502514  0.417860  1
  O  O26  1  0.742955  0.900264  0.632465  1
  O  O27  1  0.591598  0.180124  0.651154  1
  O  O28  1  0.972088  0.458129  0.348846  1
  O  O29  1  0.107196  0.398751  0.683813  1
  O  O30  1  0.482035  0.998210  0.364916  1
  O  O31  1  0.374122  0.979177  0.520093  1
  O  O32  1  0.768640  0.444326  0.571848  1
  O  O33  1  0.113209  0.919118  0.437174  1
  O  O34  1  0.081652  0.640043  0.635084  1
  O  O35  1  0.189565  0.659077  0.479907  1
  O  O36  1  0.459182  0.331988  0.467891  1
  O  O37  1  0.807742  0.135739  0.582140  1
  O  O38  1  0.043455  0.095855  0.353946  1
  O  O39  1  0.820732  0.737989  0.367535  1
  O  O40  1  0.104504  0.306266  0.532109  1
