# generated using pymatgen
data_YI3
_symmetry_space_group_name_H-M   'P 1'
_cell_length_a   7.51052582
_cell_length_b   7.51052598
_cell_length_c   23.54552300
_cell_angle_alpha   90.00000000
_cell_angle_beta   90.00000000
_cell_angle_gamma   60.00000077
_symmetry_Int_Tables_number   1
_chemical_formula_structural   YI3
_chemical_formula_sum   'Y2 I6'
_cell_volume   1150.21671070
_cell_formula_units_Z   2
loop_
 _symmetry_equiv_pos_site_id
 _symmetry_equiv_pos_as_xyz
  1  'x, y, z'
loop_
 _atom_site_type_symbol
 _atom_site_label
 _atom_site_symmetry_multiplicity
 _atom_site_fract_x
 _atom_site_fract_y
 _atom_site_fract_z
 _atom_site_occupancy
  Y  Y1  1  0.666667  0.666667  0.499989  1
  Y  Y2  1  0.333333  0.333333  0.500011  1
  I  I3  1  0.000065  0.655584  0.424813  1
  I  I4  1  0.344416  0.655650  0.575187  1
  I  I5  1  0.655650  -0.000065  0.575187  1
  I  I6  1  -0.000065  0.344416  0.575187  1
  I  I7  1  0.344350  0.000065  0.424813  1
  I  I8  1  0.655584  0.344350  0.424813  1
