# generated using pymatgen
data_Cr(CoO3)2
_symmetry_space_group_name_H-M   'P 1'
_cell_length_a   4.94935205
_cell_length_b   4.94935248
_cell_length_c   21.91305600
_cell_angle_alpha   90.00000000
_cell_angle_beta   90.00000000
_cell_angle_gamma   119.34888092
_symmetry_Int_Tables_number   1
_chemical_formula_structural   Cr(CoO3)2
_chemical_formula_sum   'Cr1 Co2 O6'
_cell_volume   467.88867637
_cell_formula_units_Z   1
loop_
 _symmetry_equiv_pos_site_id
 _symmetry_equiv_pos_as_xyz
  1  'x, y, z'
loop_
 _atom_site_type_symbol
 _atom_site_label
 _atom_site_symmetry_multiplicity
 _atom_site_fract_x
 _atom_site_fract_y
 _atom_site_fract_z
 _atom_site_occupancy
  Cr  Cr1  1  -0.000000  -0.000000  0.500000  1
  Co  Co2  1  0.334021  0.665979  0.500000  1
  Co  Co3  1  0.665979  0.334021  0.500000  1
  O  O4  1  0.339026  0.002141  0.456692  1
  O  O5  1  0.660974  0.997859  0.543308  1
  O  O6  1  0.658567  0.658567  0.456078  1
  O  O7  1  0.341433  0.341433  0.543922  1
  O  O8  1  0.997859  0.660974  0.543308  1
  O  O9  1  0.002141  0.339026  0.456692  1
