# generated using pymatgen
data_AgIrF7
_symmetry_space_group_name_H-M   'P 1'
_cell_length_a   7.05657356
_cell_length_b   7.79000893
_cell_length_c   26.59102600
_cell_angle_alpha   90.00000000
_cell_angle_beta   90.00000000
_cell_angle_gamma   90.00000000
_symmetry_Int_Tables_number   1
_chemical_formula_structural   AgIrF7
_chemical_formula_sum   'Ag2 Ir2 F14'
_cell_volume   1461.72920217
_cell_formula_units_Z   2
loop_
 _symmetry_equiv_pos_site_id
 _symmetry_equiv_pos_as_xyz
  1  'x, y, z'
loop_
 _atom_site_type_symbol
 _atom_site_label
 _atom_site_symmetry_multiplicity
 _atom_site_fract_x
 _atom_site_fract_y
 _atom_site_fract_z
 _atom_site_occupancy
  Ag  Ag1  1  -0.000000  0.645062  0.506396  1
  Ag  Ag2  1  -0.000000  0.145096  0.493661  1
  Ir  Ir3  1  0.500000  0.197906  0.423648  1
  Ir  Ir4  1  0.500000  0.697914  0.576365  1
  F  F5  1  0.500000  0.914791  0.545876  1
  F  F6  1  0.305273  0.767713  0.620847  1
  F  F7  1  0.687096  0.618659  0.527891  1
  F  F8  1  0.500000  0.478207  0.605308  1
  F  F9  1  0.694231  0.267620  0.379272  1
  F  F10  1  -0.000000  0.401977  0.475158  1
  F  F11  1  0.500000  0.414824  0.454150  1
  F  F12  1  0.500000  0.978141  0.394639  1
  F  F13  1  0.305769  0.267620  0.379272  1
  F  F14  1  0.313264  0.118814  0.471947  1
  F  F15  1  -0.000000  0.901896  0.524879  1
  F  F16  1  0.686736  0.118814  0.471947  1
  F  F17  1  0.694727  0.767713  0.620847  1
  F  F18  1  0.312904  0.618659  0.527891  1
