# generated using pymatgen
data_Ni2SbTe2
_symmetry_space_group_name_H-M   'P 1'
_cell_length_a   3.90411174
_cell_length_b   3.90411136
_cell_length_c   25.06211900
_cell_angle_alpha   90.00000000
_cell_angle_beta   90.00000000
_cell_angle_gamma   119.99999506
_symmetry_Int_Tables_number   1
_chemical_formula_structural   Ni2SbTe2
_chemical_formula_sum   'Ni2 Sb1 Te2'
_cell_volume   330.82085299
_cell_formula_units_Z   1
loop_
 _symmetry_equiv_pos_site_id
 _symmetry_equiv_pos_as_xyz
  1  'x, y, z'
loop_
 _atom_site_type_symbol
 _atom_site_label
 _atom_site_symmetry_multiplicity
 _atom_site_fract_x
 _atom_site_fract_y
 _atom_site_fract_z
 _atom_site_occupancy
  Ni  Ni1  1  0.666667  0.333333  0.552718  1
  Ni  Ni2  1  0.666667  0.333333  0.447282  1
  Sb  Sb3  1  0.000000  0.000000  0.500000  1
  Te  Te4  1  0.333333  0.666667  0.603235  1
  Te  Te5  1  0.333333  0.666667  0.396765  1
