# generated using pymatgen
data_MgSb3P3O13
_symmetry_space_group_name_H-M   'P 1'
_cell_length_a   6.91605546
_cell_length_b   11.37354824
_cell_length_c   26.37030900
_cell_angle_alpha   89.89383179
_cell_angle_beta   90.00000000
_cell_angle_gamma   90.00000000
_symmetry_Int_Tables_number   1
_chemical_formula_structural   MgSb3P3O13
_chemical_formula_sum   'Mg2 Sb6 P6 O26'
_cell_volume   2074.28732809
_cell_formula_units_Z   2
loop_
 _symmetry_equiv_pos_site_id
 _symmetry_equiv_pos_as_xyz
  1  'x, y, z'
loop_
 _atom_site_type_symbol
 _atom_site_label
 _atom_site_symmetry_multiplicity
 _atom_site_fract_x
 _atom_site_fract_y
 _atom_site_fract_z
 _atom_site_occupancy
  Mg  Mg1  1  0.750000  0.942315  0.629890  1
  Mg  Mg2  1  0.250000  0.057685  0.370110  1
  Sb  Sb3  1  0.250000  0.818286  0.602831  1
  Sb  Sb4  1  0.750000  0.181714  0.397169  1
  Sb  Sb5  1  0.250000  0.539739  0.425098  1
  Sb  Sb6  1  0.500000  -0.000000  0.500000  1
  Sb  Sb7  1  0.750000  0.460261  0.574902  1
  Sb  Sb8  1  0.000000  -0.000000  0.500000  1
  P  P9  1  0.250000  0.536674  0.551962  1
  P  P10  1  0.750000  0.463326  0.448038  1
  P  P11  1  0.250000  0.225370  0.438055  1
  P  P12  1  0.750000  0.774630  0.561945  1
  P  P13  1  0.750000  0.144563  0.599860  1
  P  P14  1  0.250000  0.855437  0.400140  1
  O  O15  1  0.750000  0.275431  0.591262  1
  O  O16  1  0.567682  0.533736  0.437064  1
  O  O17  1  0.250000  0.350359  0.454484  1
  O  O18  1  0.570350  0.077274  0.576440  1
  O  O19  1  0.750000  0.351017  0.411444  1
  O  O20  1  0.750000  0.105551  0.464463  1
  O  O21  1  0.250000  0.648983  0.588556  1
  O  O22  1  0.070350  0.922726  0.423560  1
  O  O23  1  0.250000  0.593119  0.497829  1
  O  O24  1  0.750000  0.406881  0.502171  1
  O  O25  1  0.078647  0.185004  0.401332  1
  O  O26  1  0.250000  0.894449  0.535537  1
  O  O27  1  0.578647  0.814996  0.598668  1
  O  O28  1  0.750000  0.101715  0.655981  1
  O  O29  1  0.750000  0.649641  0.545516  1
  O  O30  1  0.429650  0.922726  0.423560  1
  O  O31  1  0.932318  0.533736  0.437064  1
  O  O32  1  0.432318  0.466264  0.562936  1
  O  O33  1  0.421353  0.185004  0.401332  1
  O  O34  1  0.250000  0.724569  0.408738  1
  O  O35  1  0.750000  0.861031  0.515820  1
  O  O36  1  0.250000  0.138969  0.484180  1
  O  O37  1  0.921353  0.814996  0.598668  1
  O  O38  1  0.929650  0.077274  0.576440  1
  O  O39  1  0.067682  0.466264  0.562936  1
  O  O40  1  0.250000  0.898285  0.344019  1
