# generated using pymatgen
data_Te2W
_symmetry_space_group_name_H-M   'P 1'
_cell_length_a   3.52591664
_cell_length_b   6.31010442
_cell_length_c   24.19467000
_cell_angle_alpha   90.00000000
_cell_angle_beta   90.00000000
_cell_angle_gamma   90.00000000
_symmetry_Int_Tables_number   1
_chemical_formula_structural   Te2W
_chemical_formula_sum   'Te4 W2'
_cell_volume   538.30484598
_cell_formula_units_Z   2
loop_
 _symmetry_equiv_pos_site_id
 _symmetry_equiv_pos_as_xyz
  1  'x, y, z'
loop_
 _atom_site_type_symbol
 _atom_site_label
 _atom_site_symmetry_multiplicity
 _atom_site_fract_x
 _atom_site_fract_y
 _atom_site_fract_z
 _atom_site_occupancy
  Te  Te1  1  0.500000  0.793952  0.438611  1
  Te  Te2  1  0.000000  0.300377  0.413137  1
  Te  Te3  1  0.500000  0.140669  0.586875  1
  Te  Te4  1  0.000000  0.647052  0.561380  1
  W  W5  1  -0.000000  0.042743  0.504541  1
  W  W6  1  0.500000  0.398219  0.495456  1
