# generated using pymatgen
data_LiV(OF)2
_symmetry_space_group_name_H-M   'P 1'
_cell_length_a   3.87174890
_cell_length_b   6.77751492
_cell_length_c   22.02504388
_cell_angle_alpha   90.57403858
_cell_angle_beta   89.93188540
_cell_angle_gamma   89.87900761
_symmetry_Int_Tables_number   1
_chemical_formula_structural   LiV(OF)2
_chemical_formula_sum   'Li1 V1 O2 F2'
_cell_volume   577.92484355
_cell_formula_units_Z   1
loop_
 _symmetry_equiv_pos_site_id
 _symmetry_equiv_pos_as_xyz
  1  'x, y, z'
loop_
 _atom_site_type_symbol
 _atom_site_label
 _atom_site_symmetry_multiplicity
 _atom_site_fract_x
 _atom_site_fract_y
 _atom_site_fract_z
 _atom_site_occupancy
  Li  Li1  1  0.706735  0.952555  0.473435  1
  V  V2  1  0.771889  0.428874  0.506601  1
  O  O3  1  0.771154  0.217091  0.466025  1
  O  O4  1  0.768560  0.378099  0.578241  1
  F  F5  1  0.270632  0.475766  0.499582  1
  F  F6  1  0.770033  0.695512  0.476116  1
