# generated using pymatgen
data_LiFeF4
_symmetry_space_group_name_H-M   'P 1'
_cell_length_a   3.91619475
_cell_length_b   12.88419685
_cell_length_c   29.09129400
_cell_angle_alpha   90.00000000
_cell_angle_beta   90.00000000
_cell_angle_gamma   90.00000000
_symmetry_Int_Tables_number   1
_chemical_formula_structural   LiFeF4
_chemical_formula_sum   'Li4 Fe4 F16'
_cell_volume   1467.86012135
_cell_formula_units_Z   4
loop_
 _symmetry_equiv_pos_site_id
 _symmetry_equiv_pos_as_xyz
  1  'x, y, z'
loop_
 _atom_site_type_symbol
 _atom_site_label
 _atom_site_symmetry_multiplicity
 _atom_site_fract_x
 _atom_site_fract_y
 _atom_site_fract_z
 _atom_site_occupancy
  Li  Li1  1  -0.000000  0.902297  0.564730  1
  Li  Li2  1  -0.000000  0.344336  0.645502  1
  Li  Li3  1  -0.000000  0.393417  0.354498  1
  Li  Li4  1  -0.000000  0.835456  0.435270  1
  Fe  Fe5  1  0.000000  0.031985  0.483658  1
  Fe  Fe6  1  0.000000  0.313768  0.438235  1
  Fe  Fe7  1  0.000000  0.423985  0.561765  1
  Fe  Fe8  1  -0.000000  0.705768  0.516342  1
  F  F9  1  0.500000  0.022403  0.485465  1
  F  F10  1  -0.000000  0.173994  0.465376  1
  F  F11  1  -0.000000  0.972883  0.423328  1
  F  F12  1  0.500000  0.312480  0.437737  1
  F  F13  1  -0.000000  0.265109  0.374447  1
  F  F14  1  -0.000000  0.449741  0.409030  1
  F  F15  1  -0.000000  0.699504  0.450682  1
  F  F16  1  -0.000000  0.038250  0.549318  1
  F  F17  1  -0.000000  0.288012  0.590970  1
  F  F18  1  -0.000000  0.472643  0.625553  1
  F  F19  1  0.500000  0.425273  0.562263  1
  F  F20  1  -0.000000  0.764871  0.576672  1
  F  F21  1  -0.000000  0.368877  0.500000  1
  F  F22  1  -0.000000  0.563759  0.534624  1
  F  F23  1  0.500000  0.715350  0.514535  1
  F  F24  1  -0.000000  0.868877  0.500000  1
