# generated using pymatgen
data_BC2N
_symmetry_space_group_name_H-M   'P 1'
_cell_length_a   4.99461982
_cell_length_b   5.02387267
_cell_length_c   20.54133300
_cell_angle_alpha   90.00000000
_cell_angle_beta   90.00000000
_cell_angle_gamma   119.80510422
_symmetry_Int_Tables_number   1
_chemical_formula_structural   BC2N
_chemical_formula_sum   'B2 C4 N2'
_cell_volume   447.24951640
_cell_formula_units_Z   2
loop_
 _symmetry_equiv_pos_site_id
 _symmetry_equiv_pos_as_xyz
  1  'x, y, z'
loop_
 _atom_site_type_symbol
 _atom_site_label
 _atom_site_symmetry_multiplicity
 _atom_site_fract_x
 _atom_site_fract_y
 _atom_site_fract_z
 _atom_site_occupancy
  B  B1  1  0.323647  0.157793  0.499688  1
  B  B2  1  0.501563  0.513589  0.500299  1
  C  C3  1  0.501184  0.992991  0.499862  1
  C  C4  1  0.005334  0.508821  0.500105  1
  C  C5  1  0.832214  0.162633  0.499900  1
  C  C6  1  0.843906  0.678438  0.500141  1
  N  N7  1  0.995703  0.998378  0.499843  1
  N  N8  1  0.333044  0.673039  0.500163  1
