# generated using pymatgen
data_LiCuCO3
_symmetry_space_group_name_H-M   'P 1'
_cell_length_a   5.28182518
_cell_length_b   8.76170865
_cell_length_c   20.07644100
_cell_angle_alpha   90.00000000
_cell_angle_beta   90.00000000
_cell_angle_gamma   90.01293530
_symmetry_Int_Tables_number   1
_chemical_formula_structural   LiCuCO3
_chemical_formula_sum   'Li2 Cu2 C2 O6'
_cell_volume   929.09376584
_cell_formula_units_Z   2
loop_
 _symmetry_equiv_pos_site_id
 _symmetry_equiv_pos_as_xyz
  1  'x, y, z'
loop_
 _atom_site_type_symbol
 _atom_site_label
 _atom_site_symmetry_multiplicity
 _atom_site_fract_x
 _atom_site_fract_y
 _atom_site_fract_z
 _atom_site_occupancy
  Li  Li1  1  0.000295  0.638669  0.500090  1
  Li  Li2  1  0.499842  0.360928  0.499930  1
  Cu  Cu3  1  0.249991  0.999828  0.502159  1
  Cu  Cu4  1  0.749948  0.999775  0.497842  1
  C  C5  1  0.500054  0.715486  0.500032  1
  C  C6  1  0.999801  0.284141  0.499962  1
  O  O7  1  0.283875  0.789685  0.501256  1
  O  O8  1  0.499755  0.572621  0.500035  1
  O  O9  1  0.716415  0.789535  0.498811  1
  O  O10  1  0.216024  0.209969  0.501178  1
  O  O11  1  0.999933  0.426979  0.499954  1
  O  O12  1  0.783478  0.210002  0.498751  1
