# generated using pymatgen
data_Sc5NCl8
_symmetry_space_group_name_H-M   'P 1'
_cell_length_a   3.48885480
_cell_length_b   11.91509701
_cell_length_c   25.52057247
_cell_angle_alpha   90.16061935
_cell_angle_beta   90.00000000
_cell_angle_gamma   90.00000000
_symmetry_Int_Tables_number   1
_chemical_formula_structural   Sc5NCl8
_chemical_formula_sum   'Sc5 N1 Cl8'
_cell_volume   1060.88713670
_cell_formula_units_Z   1
loop_
 _symmetry_equiv_pos_site_id
 _symmetry_equiv_pos_as_xyz
  1  'x, y, z'
loop_
 _atom_site_type_symbol
 _atom_site_label
 _atom_site_symmetry_multiplicity
 _atom_site_fract_x
 _atom_site_fract_y
 _atom_site_fract_z
 _atom_site_occupancy
  Sc  Sc1  1  0.500000  0.981631  0.582545  1
  Sc  Sc2  1  0.500000  0.018369  0.417455  1
  Sc  Sc3  1  0.000000  0.122820  0.506193  1
  Sc  Sc4  1  0.000000  0.877180  0.493807  1
  Sc  Sc5  1  0.500000  0.500000  0.500000  1
  N  N6  1  0.500000  -0.000000  0.500000  1
  Cl  Cl7  1  0.500000  0.711950  0.484384  1
  Cl  Cl8  1  0.500000  0.288050  0.515616  1
  Cl  Cl9  1  0.000000  0.827824  0.594096  1
  Cl  Cl10  1  -0.000000  0.172176  0.405904  1
  Cl  Cl11  1  0.000000  0.873304  0.390615  1
  Cl  Cl12  1  0.000000  0.126696  0.609385  1
  Cl  Cl13  1  -0.000000  0.520902  0.569002  1
  Cl  Cl14  1  -0.000000  0.479098  0.430998  1
