# generated using pymatgen
data_Sn3P4
_symmetry_space_group_name_H-M   'P 1'
_cell_length_a   4.06306945
_cell_length_b   4.06306930
_cell_length_c   27.82761500
_cell_angle_alpha   90.00000000
_cell_angle_beta   90.00000000
_cell_angle_gamma   119.57033851
_symmetry_Int_Tables_number   1
_chemical_formula_structural   Sn3P4
_chemical_formula_sum   'Sn3 P4'
_cell_volume   399.55738362
_cell_formula_units_Z   1
loop_
 _symmetry_equiv_pos_site_id
 _symmetry_equiv_pos_as_xyz
  1  'x, y, z'
loop_
 _atom_site_type_symbol
 _atom_site_label
 _atom_site_symmetry_multiplicity
 _atom_site_fract_x
 _atom_site_fract_y
 _atom_site_fract_z
 _atom_site_occupancy
  Sn  Sn1  1  0.327157  0.327157  0.500000  1
  Sn  Sn2  1  0.378929  0.410736  0.327964  1
  Sn  Sn3  1  0.410736  0.378929  0.672036  1
  P  P4  1  0.007597  0.671421  0.548015  1
  P  P5  1  0.075424  0.713236  0.625945  1
  P  P6  1  0.713236  0.075424  0.374055  1
  P  P7  1  0.671421  0.007597  0.451985  1
