# generated using pymatgen
data_PuI3
_symmetry_space_group_name_H-M   'P 1'
_cell_length_a   4.20315010
_cell_length_b   9.92693893
_cell_length_c   24.89090600
_cell_angle_alpha   90.00000000
_cell_angle_beta   90.00000000
_cell_angle_gamma   90.00000000
_symmetry_Int_Tables_number   1
_chemical_formula_structural   PuI3
_chemical_formula_sum   'Pu2 I6'
_cell_volume   1038.55847565
_cell_formula_units_Z   2
loop_
 _symmetry_equiv_pos_site_id
 _symmetry_equiv_pos_as_xyz
  1  'x, y, z'
loop_
 _atom_site_type_symbol
 _atom_site_label
 _atom_site_symmetry_multiplicity
 _atom_site_fract_x
 _atom_site_fract_y
 _atom_site_fract_z
 _atom_site_occupancy
  Pu  Pu1  1  0.500000  -0.000000  0.506740  1
  Pu  Pu2  1  0.000000  0.500000  0.493260  1
  I  I3  1  0.000000  0.182183  0.441123  1
  I  I4  1  0.500000  0.317817  0.558877  1
  I  I5  1  0.500000  0.500000  0.401504  1
  I  I6  1  -0.000000  -0.000000  0.598496  1
  I  I7  1  -0.000000  0.817817  0.441123  1
  I  I8  1  0.500000  0.682183  0.558877  1
