# generated using pymatgen
data_Re2NiO8
_symmetry_space_group_name_H-M   'P 1'
_cell_length_a   5.73733452
_cell_length_b   5.73733444
_cell_length_c   27.00673800
_cell_angle_alpha   90.00000000
_cell_angle_beta   90.00000000
_cell_angle_gamma   119.99999466
_symmetry_Int_Tables_number   1
_chemical_formula_structural   Re2NiO8
_chemical_formula_sum   'Re2 Ni1 O8'
_cell_volume   769.88015576
_cell_formula_units_Z   1
loop_
 _symmetry_equiv_pos_site_id
 _symmetry_equiv_pos_as_xyz
  1  'x, y, z'
loop_
 _atom_site_type_symbol
 _atom_site_label
 _atom_site_symmetry_multiplicity
 _atom_site_fract_x
 _atom_site_fract_y
 _atom_site_fract_z
 _atom_site_occupancy
  Re  Re1  1  0.333333  0.666667  0.434390  1
  Re  Re2  1  0.666667  0.333333  0.565610  1
  Ni  Ni3  1  0.000000  0.000000  0.500000  1
  O  O4  1  0.666667  0.333333  0.629465  1
  O  O5  1  0.333333  0.666667  0.370535  1
  O  O6  1  0.332752  0.147283  0.543949  1
  O  O7  1  0.185468  0.332752  0.456051  1
  O  O8  1  0.147283  0.814532  0.456051  1
  O  O9  1  0.667248  0.852717  0.456051  1
  O  O10  1  0.814532  0.667248  0.543949  1
  O  O11  1  0.852717  0.185468  0.543949  1
