# generated using pymatgen
data_AgClO2
_symmetry_space_group_name_H-M   'P 1'
_cell_length_a   6.17416763
_cell_length_b   6.72707777
_cell_length_c   20.40263340
_cell_angle_alpha   89.83830117
_cell_angle_beta   90.13136918
_cell_angle_gamma   75.06756455
_symmetry_Int_Tables_number   1
_chemical_formula_structural   AgClO2
_chemical_formula_sum   'Ag2 Cl2 O4'
_cell_volume   818.78130845
_cell_formula_units_Z   2
loop_
 _symmetry_equiv_pos_site_id
 _symmetry_equiv_pos_as_xyz
  1  'x, y, z'
loop_
 _atom_site_type_symbol
 _atom_site_label
 _atom_site_symmetry_multiplicity
 _atom_site_fract_x
 _atom_site_fract_y
 _atom_site_fract_z
 _atom_site_occupancy
  Ag  Ag1  1  0.995867  0.497265  0.507002  1
  Ag  Ag2  1  0.498835  0.000015  0.509952  1
  Cl  Cl3  1  0.004703  0.986677  0.466557  1
  Cl  Cl4  1  0.497023  0.499359  0.501796  1
  O  O5  1  0.318581  0.304454  0.498559  1
  O  O6  1  0.792674  0.111909  0.504888  1
  O  O7  1  0.204344  0.889183  0.513685  1
  O  O8  1  0.676438  0.695974  0.497561  1
