# generated using pymatgen
data_ZrSn
_symmetry_space_group_name_H-M   'P 1'
_cell_length_a   3.09816338
_cell_length_b   5.19631268
_cell_length_c   30.76880500
_cell_angle_alpha   90.00000000
_cell_angle_beta   90.00000000
_cell_angle_gamma   90.00000000
_symmetry_Int_Tables_number   1
_chemical_formula_structural   ZrSn
_chemical_formula_sum   'Zr4 Sn4'
_cell_volume   495.34778111
_cell_formula_units_Z   4
loop_
 _symmetry_equiv_pos_site_id
 _symmetry_equiv_pos_as_xyz
  1  'x, y, z'
loop_
 _atom_site_type_symbol
 _atom_site_label
 _atom_site_symmetry_multiplicity
 _atom_site_fract_x
 _atom_site_fract_y
 _atom_site_fract_z
 _atom_site_occupancy
  Zr  Zr1  1  0.000000  0.500000  0.519418  1
  Zr  Zr2  1  0.500000  0.500000  0.428528  1
  Zr  Zr3  1  -0.000000  -0.000000  0.571472  1
  Zr  Zr4  1  0.500000  -0.000000  0.480582  1
  Sn  Sn5  1  -0.000000  0.500000  0.334101  1
  Sn  Sn6  1  0.500000  0.500000  0.608903  1
  Sn  Sn7  1  -0.000000  -0.000000  0.391097  1
  Sn  Sn8  1  0.500000  0.000000  0.665899  1
