# generated using pymatgen
data_Er6I7
_symmetry_space_group_name_H-M   'P 1'
_cell_length_a   3.94478218
_cell_length_b   10.92902245
_cell_length_c   29.10435300
_cell_angle_alpha   90.00000000
_cell_angle_beta   90.00000000
_cell_angle_gamma   100.39729924
_symmetry_Int_Tables_number   1
_chemical_formula_structural   Er6I7
_chemical_formula_sum   'Er6 I7'
_cell_volume   1234.16144460
_cell_formula_units_Z   1
loop_
 _symmetry_equiv_pos_site_id
 _symmetry_equiv_pos_as_xyz
  1  'x, y, z'
loop_
 _atom_site_type_symbol
 _atom_site_label
 _atom_site_symmetry_multiplicity
 _atom_site_fract_x
 _atom_site_fract_y
 _atom_site_fract_z
 _atom_site_occupancy
  Er  Er1  1  0.384779  0.769558  0.482702  1
  Er  Er2  1  0.222551  0.445102  0.457040  1
  Er  Er3  1  0.827055  0.654108  0.393853  1
  Er  Er4  1  0.777449  0.554898  0.542960  1
  Er  Er5  1  0.172945  0.345892  0.606147  1
  Er  Er6  1  0.615221  0.230442  0.517298  1
  I  I7  1  0.752403  0.504805  0.658846  1
  I  I8  1  0.435335  0.870670  0.380461  1
  I  I9  1  0.564665  0.129330  0.619539  1
  I  I10  1  0.247597  0.495195  0.341154  1
  I  I11  1  0.379578  0.759156  0.585339  1
  I  I12  1  -0.000000  -0.000000  0.500000  1
  I  I13  1  0.620422  0.240844  0.414661  1
