# generated using pymatgen
data_Li2Cr4O13
_symmetry_space_group_name_H-M   'P 1'
_cell_length_a   7.68229149
_cell_length_b   8.54730344
_cell_length_c   29.90357000
_cell_angle_alpha   90.00000000
_cell_angle_beta   90.00000000
_cell_angle_gamma   90.00000000
_symmetry_Int_Tables_number   1
_chemical_formula_structural   Li2Cr4O13
_chemical_formula_sum   'Li4 Cr8 O26'
_cell_volume   1963.55442321
_cell_formula_units_Z   2
loop_
 _symmetry_equiv_pos_site_id
 _symmetry_equiv_pos_as_xyz
  1  'x, y, z'
loop_
 _atom_site_type_symbol
 _atom_site_label
 _atom_site_symmetry_multiplicity
 _atom_site_fract_x
 _atom_site_fract_y
 _atom_site_fract_z
 _atom_site_occupancy
  Li  Li1  1  0.768460  0.833656  0.549881  1
  Li  Li2  1  0.231541  0.166344  0.549881  1
  Li  Li3  1  0.268460  0.666344  0.450119  1
  Li  Li4  1  0.731541  0.333656  0.450119  1
  Cr  Cr5  1  0.228157  0.488140  0.622648  1
  Cr  Cr6  1  0.771843  0.511860  0.622648  1
  Cr  Cr7  1  0.220306  0.788156  0.561032  1
  Cr  Cr8  1  0.779694  0.211844  0.561032  1
  Cr  Cr9  1  0.720306  0.711844  0.438968  1
  Cr  Cr10  1  0.279694  0.288156  0.438968  1
  Cr  Cr11  1  0.271843  0.988140  0.377352  1
  Cr  Cr12  1  0.728157  0.011860  0.377352  1
  O  O13  1  0.815928  0.063849  0.331417  1
  O  O14  1  0.184072  0.936151  0.331417  1
  O  O15  1  -0.000000  0.500000  0.628839  1
  O  O16  1  0.698844  0.326100  0.608487  1
  O  O17  1  0.301157  0.673900  0.608487  1
  O  O18  1  0.280386  0.365892  0.583413  1
  O  O19  1  0.719615  0.634108  0.583413  1
  O  O20  1  0.013082  0.819402  0.568664  1
  O  O21  1  0.986918  0.180598  0.568664  1
  O  O22  1  0.676041  0.045797  0.559596  1
  O  O23  1  0.323960  0.954203  0.559596  1
  O  O24  1  0.250811  0.690165  0.514845  1
  O  O25  1  0.749189  0.309835  0.514845  1
  O  O26  1  0.750811  0.809835  0.485155  1
  O  O27  1  0.249189  0.190165  0.485155  1
  O  O28  1  0.823960  0.545797  0.440404  1
  O  O29  1  0.176040  0.454203  0.440404  1
  O  O30  1  0.486918  0.319402  0.431336  1
  O  O31  1  0.513082  0.680598  0.431336  1
  O  O32  1  0.219615  0.865892  0.416587  1
  O  O33  1  0.780385  0.134108  0.416587  1
  O  O34  1  0.801157  0.826100  0.391513  1
  O  O35  1  0.198844  0.173900  0.391513  1
  O  O36  1  0.500000  0.000000  0.371161  1
  O  O37  1  0.315928  0.436151  0.668583  1
  O  O38  1  0.684072  0.563849  0.668583  1
