# generated using pymatgen
data_U(HO2)2
_symmetry_space_group_name_H-M   'P 1'
_cell_length_a   5.36554291
_cell_length_b   6.49415853
_cell_length_c   23.37372350
_cell_angle_alpha   89.92405205
_cell_angle_beta   90.00000000
_cell_angle_gamma   90.00000000
_symmetry_Int_Tables_number   1
_chemical_formula_structural   U(HO2)2
_chemical_formula_sum   'U2 H4 O8'
_cell_volume   814.44934582
_cell_formula_units_Z   2
loop_
 _symmetry_equiv_pos_site_id
 _symmetry_equiv_pos_as_xyz
  1  'x, y, z'
loop_
 _atom_site_type_symbol
 _atom_site_label
 _atom_site_symmetry_multiplicity
 _atom_site_fract_x
 _atom_site_fract_y
 _atom_site_fract_z
 _atom_site_occupancy
  U  U1  1  0.000000  0.500000  0.500000  1
  U  U2  1  0.500000  -0.000000  0.500000  1
  H  H3  1  0.119199  0.822980  0.575656  1
  H  H4  1  0.619199  0.677020  0.424344  1
  H  H5  1  0.880801  0.177020  0.424344  1
  H  H6  1  0.380801  0.322980  0.575656  1
  O  O7  1  0.840364  0.471161  0.568082  1
  O  O8  1  0.340364  0.028839  0.431918  1
  O  O9  1  0.159636  0.528839  0.431918  1
  O  O10  1  0.659636  0.971161  0.568082  1
  O  O11  1  0.173928  0.797747  0.536302  1
  O  O12  1  0.673928  0.702253  0.463698  1
  O  O13  1  0.826072  0.202253  0.463698  1
  O  O14  1  0.326072  0.297747  0.536302  1
