# generated using pymatgen
data_InBi2Se4Br
_symmetry_space_group_name_H-M   'P 1'
_cell_length_a   4.15119840
_cell_length_b   17.89739542
_cell_length_c   24.99621200
_cell_angle_alpha   88.45620034
_cell_angle_beta   90.00000000
_cell_angle_gamma   90.00000000
_symmetry_Int_Tables_number   1
_chemical_formula_structural   InBi2Se4Br
_chemical_formula_sum   'In2 Bi4 Se8 Br2'
_cell_volume   1856.43545908
_cell_formula_units_Z   2
loop_
 _symmetry_equiv_pos_site_id
 _symmetry_equiv_pos_as_xyz
  1  'x, y, z'
loop_
 _atom_site_type_symbol
 _atom_site_label
 _atom_site_symmetry_multiplicity
 _atom_site_fract_x
 _atom_site_fract_y
 _atom_site_fract_z
 _atom_site_occupancy
  In  In1  1  0.750000  0.847982  0.513848  1
  In  In2  1  0.250000  0.008852  0.486152  1
  Bi  Bi3  1  0.750000  0.455832  0.570511  1
  Bi  Bi4  1  0.250000  0.401002  0.429489  1
  Bi  Bi5  1  0.750000  0.212750  0.484916  1
  Bi  Bi6  1  0.250000  0.644084  0.515084  1
  Se  Se7  1  0.750000  0.717636  0.569768  1
  Se  Se8  1  0.750000  0.522674  0.471514  1
  Se  Se9  1  0.750000  0.947922  0.432960  1
  Se  Se10  1  0.250000  0.546415  0.611064  1
  Se  Se11  1  0.750000  0.310419  0.388936  1
  Se  Se12  1  0.250000  0.334160  0.528486  1
  Se  Se13  1  0.250000  0.139198  0.430232  1
  Se  Se14  1  0.250000  0.908912  0.567040  1
  Br  Br15  1  0.250000  0.766056  0.436944  1
  Br  Br16  1  0.750000  0.090778  0.563056  1
