# generated using pymatgen
data_La2GeI2
_symmetry_space_group_name_H-M   'P 1'
_cell_length_a   4.46573021
_cell_length_b   4.46572978
_cell_length_c   27.49064000
_cell_angle_alpha   90.00000000
_cell_angle_beta   90.00000000
_cell_angle_gamma   120.00000325
_symmetry_Int_Tables_number   1
_chemical_formula_structural   La2GeI2
_chemical_formula_sum   'La2 Ge1 I2'
_cell_volume   474.78871839
_cell_formula_units_Z   1
loop_
 _symmetry_equiv_pos_site_id
 _symmetry_equiv_pos_as_xyz
  1  'x, y, z'
loop_
 _atom_site_type_symbol
 _atom_site_label
 _atom_site_symmetry_multiplicity
 _atom_site_fract_x
 _atom_site_fract_y
 _atom_site_fract_z
 _atom_site_occupancy
  La  La1  1  0.666667  0.333333  0.438669  1
  La  La2  1  0.333333  0.666667  0.561331  1
  Ge  Ge3  1  -0.000000  0.000000  0.500000  1
  I  I4  1  0.333333  0.666667  0.363838  1
  I  I5  1  0.666667  0.333333  0.636162  1
