# generated using pymatgen
data_SbN9
_symmetry_space_group_name_H-M   'P 1'
_cell_length_a   6.98383291
_cell_length_b   6.98383289
_cell_length_c   24.95453500
_cell_angle_alpha   90.00000000
_cell_angle_beta   90.00000000
_cell_angle_gamma   59.99999585
_symmetry_Int_Tables_number   1
_chemical_formula_structural   SbN9
_chemical_formula_sum   'Sb2 N18'
_cell_volume   1054.06592666
_cell_formula_units_Z   2
loop_
 _symmetry_equiv_pos_site_id
 _symmetry_equiv_pos_as_xyz
  1  'x, y, z'
loop_
 _atom_site_type_symbol
 _atom_site_label
 _atom_site_symmetry_multiplicity
 _atom_site_fract_x
 _atom_site_fract_y
 _atom_site_fract_z
 _atom_site_occupancy
  Sb  Sb1  1  0.666667  0.666667  0.480015  1
  Sb  Sb2  1  0.333333  0.333333  0.519985  1
  N  N3  1  0.412548  0.672811  0.533317  1
  N  N4  1  0.672811  0.914642  0.533317  1
  N  N5  1  0.914642  0.412548  0.533317  1
  N  N6  1  0.587452  0.327189  0.466683  1
  N  N7  1  0.327189  0.085358  0.466683  1
  N  N8  1  0.085358  0.587452  0.466683  1
  N  N9  1  0.342641  0.815814  0.568108  1
  N  N10  1  0.815814  0.841545  0.568108  1
  N  N11  1  0.841545  0.342641  0.568108  1
  N  N12  1  0.657359  0.184186  0.431892  1
  N  N13  1  0.184186  0.158455  0.431892  1
  N  N14  1  0.158455  0.657359  0.431892  1
  N  N15  1  0.277199  0.951039  0.600447  1
  N  N16  1  0.951039  0.771761  0.600447  1
  N  N17  1  0.771761  0.277199  0.600447  1
  N  N18  1  0.722801  0.048961  0.399553  1
  N  N19  1  0.048961  0.228239  0.399553  1
  N  N20  1  0.228239  0.722801  0.399553  1
