# generated using pymatgen
data_Ca3(CoO3)2
_symmetry_space_group_name_H-M   'P 1'
_cell_length_a   3.37857388
_cell_length_b   6.50287680
_cell_length_c   24.32633300
_cell_angle_alpha   90.00000000
_cell_angle_beta   90.00000000
_cell_angle_gamma   90.29369846
_symmetry_Int_Tables_number   1
_chemical_formula_structural   Ca3(CoO3)2
_chemical_formula_sum   'Ca3 Co2 O6'
_cell_volume   534.45345395
_cell_formula_units_Z   1
loop_
 _symmetry_equiv_pos_site_id
 _symmetry_equiv_pos_as_xyz
  1  'x, y, z'
loop_
 _atom_site_type_symbol
 _atom_site_label
 _atom_site_symmetry_multiplicity
 _atom_site_fract_x
 _atom_site_fract_y
 _atom_site_fract_z
 _atom_site_occupancy
  Ca  Ca1  1  0.747775  0.674781  0.421143  1
  Ca  Ca2  1  0.747719  0.176813  0.418658  1
  Ca  Ca3  1  0.768577  0.677991  0.599431  1
  Co  Co4  1  0.188666  0.938663  0.512701  1
  Co  Co5  1  0.179704  0.411682  0.514445  1
  O  O6  1  0.254355  0.926980  0.426074  1
  O  O7  1  0.252681  0.424335  0.424587  1
  O  O8  1  0.279556  0.903915  0.583209  1
  O  O9  1  0.272956  0.449328  0.584911  1
  O  O10  1  0.843901  0.673164  0.508013  1
  O  O11  1  0.822547  0.174727  0.506826  1
