# generated using pymatgen
data_NaTeF5
_symmetry_space_group_name_H-M   'P 1'
_cell_length_a   6.06803014
_cell_length_b   10.08831869
_cell_length_c   25.11684800
_cell_angle_alpha   90.00000000
_cell_angle_beta   90.00000000
_cell_angle_gamma   90.00000000
_symmetry_Int_Tables_number   1
_chemical_formula_structural   NaTeF5
_chemical_formula_sum   'Na2 Te2 F10'
_cell_volume   1537.55853991
_cell_formula_units_Z   2
loop_
 _symmetry_equiv_pos_site_id
 _symmetry_equiv_pos_as_xyz
  1  'x, y, z'
loop_
 _atom_site_type_symbol
 _atom_site_label
 _atom_site_symmetry_multiplicity
 _atom_site_fract_x
 _atom_site_fract_y
 _atom_site_fract_z
 _atom_site_occupancy
  Na  Na1  1  -0.000000  0.991228  0.481415  1
  Na  Na2  1  -0.000000  0.491228  0.518585  1
  Te  Te3  1  0.500000  0.738752  0.468719  1
  Te  Te4  1  0.500000  0.238752  0.531281  1
  F  F5  1  0.500000  0.690845  0.396586  1
  F  F6  1  0.500000  0.190845  0.603414  1
  F  F7  1  0.265103  0.596960  0.474228  1
  F  F8  1  0.734897  0.096960  0.525772  1
  F  F9  1  0.734897  0.596960  0.474228  1
  F  F10  1  0.265103  0.096960  0.525772  1
  F  F11  1  0.265386  0.867066  0.445658  1
  F  F12  1  0.734614  0.367066  0.554342  1
  F  F13  1  0.734614  0.867066  0.445658  1
  F  F14  1  0.265386  0.367066  0.554342  1
