# generated using pymatgen
data_HfTe3
_symmetry_space_group_name_H-M   'P 1'
_cell_length_a   3.96068184
_cell_length_b   5.94023566
_cell_length_c   26.85624600
_cell_angle_alpha   90.00000000
_cell_angle_beta   90.00000000
_cell_angle_gamma   90.00000000
_symmetry_Int_Tables_number   1
_chemical_formula_structural   HfTe3
_chemical_formula_sum   'Hf2 Te6'
_cell_volume   631.85719912
_cell_formula_units_Z   2
loop_
 _symmetry_equiv_pos_site_id
 _symmetry_equiv_pos_as_xyz
  1  'x, y, z'
loop_
 _atom_site_type_symbol
 _atom_site_label
 _atom_site_symmetry_multiplicity
 _atom_site_fract_x
 _atom_site_fract_y
 _atom_site_fract_z
 _atom_site_occupancy
  Hf  Hf1  1  0.750000  0.667999  0.437861  1
  Hf  Hf2  1  0.250000  0.169312  0.562139  1
  Te  Te3  1  0.750000  0.169239  0.480619  1
  Te  Te4  1  0.250000  0.668073  0.519381  1
  Te  Te5  1  0.750000  0.929089  0.624336  1
  Te  Te6  1  0.250000  0.908223  0.375664  1
  Te  Te7  1  0.750000  0.402798  0.626862  1
  Te  Te8  1  0.250000  0.434514  0.373138  1
