# generated using pymatgen
data_TbTe3
_symmetry_space_group_name_H-M   'P 1'
_cell_length_a   4.34993778
_cell_length_b   4.35004350
_cell_length_c   29.15646100
_cell_angle_alpha   90.00000000
_cell_angle_beta   90.00000000
_cell_angle_gamma   90.00000000
_symmetry_Int_Tables_number   1
_chemical_formula_structural   TbTe3
_chemical_formula_sum   'Tb2 Te6'
_cell_volume   551.71075892
_cell_formula_units_Z   2
loop_
 _symmetry_equiv_pos_site_id
 _symmetry_equiv_pos_as_xyz
  1  'x, y, z'
loop_
 _atom_site_type_symbol
 _atom_site_label
 _atom_site_symmetry_multiplicity
 _atom_site_fract_x
 _atom_site_fract_y
 _atom_site_fract_z
 _atom_site_occupancy
  Tb  Tb1  1  0.500000  0.000000  0.571088  1
  Tb  Tb2  1  0.000000  0.500000  0.428912  1
  Te  Te3  1  0.000000  0.000000  0.342876  1
  Te  Te4  1  0.500000  0.500000  0.657124  1
  Te  Te5  1  0.000000  0.000000  0.657107  1
  Te  Te6  1  0.500000  0.500000  0.342893  1
  Te  Te7  1  0.500000  0.000000  0.460750  1
  Te  Te8  1  0.000000  0.500000  0.539250  1
