# generated using pymatgen
data_Y2Mn2S2O5
_symmetry_space_group_name_H-M   'P 1'
_cell_length_a   3.77102092
_cell_length_b   3.77359279
_cell_length_c   29.43201800
_cell_angle_alpha   90.00000000
_cell_angle_beta   90.00000000
_cell_angle_gamma   90.00000000
_symmetry_Int_Tables_number   1
_chemical_formula_structural   Y2Mn2S2O5
_chemical_formula_sum   'Y2 Mn2 S2 O5'
_cell_volume   418.82636789
_cell_formula_units_Z   1
loop_
 _symmetry_equiv_pos_site_id
 _symmetry_equiv_pos_as_xyz
  1  'x, y, z'
loop_
 _atom_site_type_symbol
 _atom_site_label
 _atom_site_symmetry_multiplicity
 _atom_site_fract_x
 _atom_site_fract_y
 _atom_site_fract_z
 _atom_site_occupancy
  Y  Y1  1  0.500000  0.500000  0.374772  1
  Y  Y2  1  0.500000  0.500000  0.625228  1
  Mn  Mn3  1  0.000000  -0.000000  0.561649  1
  Mn  Mn4  1  0.000000  -0.000000  0.438351  1
  S  S5  1  0.000000  0.000000  0.661109  1
  S  S6  1  -0.000000  0.000000  0.338891  1
  O  O7  1  -0.000000  -0.000000  0.500000  1
  O  O8  1  -0.000000  0.500000  0.578194  1
  O  O9  1  0.500000  -0.000000  0.421764  1
  O  O10  1  0.500000  0.000000  0.578236  1
  O  O11  1  -0.000000  0.500000  0.421806  1
