# generated using pymatgen
data_Li8Cr3TeO12
_symmetry_space_group_name_H-M   'P 1'
_cell_length_a   5.16482925
_cell_length_b   5.09619638
_cell_length_c   26.97751839
_cell_angle_alpha   90.00000000
_cell_angle_beta   90.00000000
_cell_angle_gamma   109.76041761
_symmetry_Int_Tables_number   1
_chemical_formula_structural   Li8Cr3TeO12
_chemical_formula_sum   'Li8 Cr3 Te1 O12'
_cell_volume   668.26176378
_cell_formula_units_Z   1
loop_
 _symmetry_equiv_pos_site_id
 _symmetry_equiv_pos_as_xyz
  1  'x, y, z'
loop_
 _atom_site_type_symbol
 _atom_site_label
 _atom_site_symmetry_multiplicity
 _atom_site_fract_x
 _atom_site_fract_y
 _atom_site_fract_z
 _atom_site_occupancy
  Li  Li1  1  0.500000  0.000000  0.567441  1
  Li  Li2  1  0.500000  0.000000  0.654485  1
  Li  Li3  1  0.000000  0.000000  0.613624  1
  Li  Li4  1  0.000000  0.000000  0.397858  1
  Li  Li5  1  0.500000  0.500000  0.607687  1
  Li  Li6  1  0.500000  0.500000  0.516524  1
  Li  Li7  1  0.000000  0.500000  0.348260  1
  Li  Li8  1  0.000000  0.500000  0.463083  1
  Cr  Cr9  1  0.000000  0.000000  0.515632  1
  Cr  Cr10  1  0.000000  0.500000  0.574166  1
  Cr  Cr11  1  0.500000  0.000000  0.464498  1
  Te  Te12  1  0.500000  0.500000  0.400459  1
  O  O13  1  0.763304  0.715765  0.356530  1
  O  O14  1  0.732539  0.758319  0.461399  1
  O  O15  1  0.773269  0.745635  0.567336  1
  O  O16  1  0.240002  0.732867  0.620607  1
  O  O17  1  0.279744  0.736835  0.414395  1
  O  O18  1  0.231188  0.754706  0.517875  1
  O  O19  1  0.768812  0.245294  0.517875  1
  O  O20  1  0.720256  0.263165  0.414395  1
  O  O21  1  0.759998  0.267133  0.620607  1
  O  O22  1  0.226731  0.254365  0.567336  1
  O  O23  1  0.267461  0.241681  0.461399  1
  O  O24  1  0.236696  0.284235  0.356530  1
