# generated using pymatgen
data_ZnGe2WO6
_symmetry_space_group_name_H-M   'P 1'
_cell_length_a   5.51251256
_cell_length_b   8.71809229
_cell_length_c   30.16119600
_cell_angle_alpha   90.00000000
_cell_angle_beta   90.00000000
_cell_angle_gamma   90.00000000
_symmetry_Int_Tables_number   1
_chemical_formula_structural   ZnGe2WO6
_chemical_formula_sum   'Zn4 Ge8 W4 O24'
_cell_volume   1449.50465043
_cell_formula_units_Z   4
loop_
 _symmetry_equiv_pos_site_id
 _symmetry_equiv_pos_as_xyz
  1  'x, y, z'
loop_
 _atom_site_type_symbol
 _atom_site_label
 _atom_site_symmetry_multiplicity
 _atom_site_fract_x
 _atom_site_fract_y
 _atom_site_fract_z
 _atom_site_occupancy
  Zn  Zn1  1  0.427434  0.547069  0.390552  1
  Zn  Zn2  1  0.072566  0.047069  0.609448  1
  Zn  Zn3  1  0.572566  0.452931  0.609448  1
  Zn  Zn4  1  0.927434  0.952931  0.390552  1
  Ge  Ge5  1  0.953133  0.636700  0.332637  1
  Ge  Ge6  1  0.546867  0.136700  0.667363  1
  Ge  Ge7  1  0.046867  0.363300  0.667363  1
  Ge  Ge8  1  0.453133  0.863300  0.332637  1
  Ge  Ge9  1  0.750188  0.659480  0.483790  1
  Ge  Ge10  1  0.749812  0.159480  0.516210  1
  Ge  Ge11  1  0.249812  0.340520  0.516210  1
  Ge  Ge12  1  0.250188  0.840520  0.483790  1
  W  W13  1  0.930611  0.344199  0.418164  1
  W  W14  1  0.569389  0.844199  0.581836  1
  W  W15  1  0.069389  0.655801  0.581836  1
  W  W16  1  0.430611  0.155801  0.418164  1
  O  O17  1  0.465901  0.711306  0.458708  1
  O  O18  1  0.034099  0.211306  0.541292  1
  O  O19  1  0.534099  0.288694  0.541292  1
  O  O20  1  0.965901  0.788694  0.458708  1
  O  O21  1  0.636429  0.688460  0.358824  1
  O  O22  1  0.863571  0.188460  0.641176  1
  O  O23  1  0.363571  0.311540  0.641176  1
  O  O24  1  0.136429  0.811540  0.358824  1
  O  O25  1  0.290767  0.029675  0.468458  1
  O  O26  1  0.209233  0.529675  0.531542  1
  O  O27  1  0.709233  0.970325  0.531542  1
  O  O28  1  0.790767  0.470325  0.468458  1
  O  O29  1  0.578394  0.987063  0.381759  1
  O  O30  1  0.921606  0.487063  0.618241  1
  O  O31  1  0.421606  0.012937  0.618241  1
  O  O32  1  0.078394  0.512937  0.381759  1
  O  O33  1  0.413926  0.658134  0.611386  1
  O  O34  1  0.086074  0.158134  0.388614  1
  O  O35  1  0.586074  0.341866  0.388614  1
  O  O36  1  0.913926  0.841866  0.611386  1
  O  O37  1  0.739292  0.666964  0.542777  1
  O  O38  1  0.760708  0.166964  0.457223  1
  O  O39  1  0.260708  0.333036  0.457223  1
  O  O40  1  0.239292  0.833036  0.542777  1
