# generated using pymatgen
data_TlBr
_symmetry_space_group_name_H-M   'P 1'
_cell_length_a   4.64196612
_cell_length_b   4.66635106
_cell_length_c   23.43805700
_cell_angle_alpha   90.00000000
_cell_angle_beta   90.00000000
_cell_angle_gamma   90.00000000
_symmetry_Int_Tables_number   1
_chemical_formula_structural   TlBr
_chemical_formula_sum   'Tl2 Br2'
_cell_volume   507.69277281
_cell_formula_units_Z   2
loop_
 _symmetry_equiv_pos_site_id
 _symmetry_equiv_pos_as_xyz
  1  'x, y, z'
loop_
 _atom_site_type_symbol
 _atom_site_label
 _atom_site_symmetry_multiplicity
 _atom_site_fract_x
 _atom_site_fract_y
 _atom_site_fract_z
 _atom_site_occupancy
  Tl  Tl1  1  0.000000  0.500000  0.572035  1
  Tl  Tl2  1  0.500000  0.000000  0.427965  1
  Br  Br3  1  0.500000  0.000000  0.560747  1
  Br  Br4  1  0.000000  0.500000  0.439253  1
