# generated using pymatgen
data_BiOF
_symmetry_space_group_name_H-M   'P 1'
_cell_length_a   3.96517487
_cell_length_b   3.96517474
_cell_length_c   24.77518996
_cell_angle_alpha   90.00000000
_cell_angle_beta   90.00000000
_cell_angle_gamma   60.00000700
_symmetry_Int_Tables_number   1
_chemical_formula_structural   BiOF
_chemical_formula_sum   'Bi2 O2 F2'
_cell_volume   337.34348798
_cell_formula_units_Z   2
loop_
 _symmetry_equiv_pos_site_id
 _symmetry_equiv_pos_as_xyz
  1  'x, y, z'
loop_
 _atom_site_type_symbol
 _atom_site_label
 _atom_site_symmetry_multiplicity
 _atom_site_fract_x
 _atom_site_fract_y
 _atom_site_fract_z
 _atom_site_occupancy
  Bi  Bi1  1  0.333333  0.333333  0.560073  1
  Bi  Bi2  1  0.666667  0.666667  0.439927  1
  O  O3  1  0.666667  0.666667  0.530615  1
  O  O4  1  0.333333  0.333333  0.469385  1
  F  F5  1  0.000000  -0.000000  0.599583  1
  F  F6  1  0.000000  -0.000000  0.400417  1
