# generated using pymatgen
data_LiMg2
_symmetry_space_group_name_H-M   'P 1'
_cell_length_a   3.20069755
_cell_length_b   3.20069755
_cell_length_c   32.46212000
_cell_angle_alpha   90.00000000
_cell_angle_beta   90.00000000
_cell_angle_gamma   119.99998956
_symmetry_Int_Tables_number   1
_chemical_formula_structural   LiMg2
_chemical_formula_sum   'Li2 Mg4'
_cell_volume   288.00288027
_cell_formula_units_Z   2
loop_
 _symmetry_equiv_pos_site_id
 _symmetry_equiv_pos_as_xyz
  1  'x, y, z'
loop_
 _atom_site_type_symbol
 _atom_site_label
 _atom_site_symmetry_multiplicity
 _atom_site_fract_x
 _atom_site_fract_y
 _atom_site_fract_z
 _atom_site_occupancy
  Li  Li1  1  0.333333  0.666667  0.691206  1
  Li  Li2  1  0.666667  0.333333  0.308794  1
  Mg  Mg3  1  0.333333  0.666667  0.538660  1
  Mg  Mg4  1  0.666667  0.333333  0.618018  1
  Mg  Mg5  1  0.333333  0.666667  0.381982  1
  Mg  Mg6  1  0.666667  0.333333  0.461340  1
