# generated using pymatgen
data_GdSI
_symmetry_space_group_name_H-M   'P 1'
_cell_length_a   4.22582850
_cell_length_b   5.34732734
_cell_length_c   26.80917200
_cell_angle_alpha   90.00000000
_cell_angle_beta   90.00000000
_cell_angle_gamma   90.00000000
_symmetry_Int_Tables_number   1
_chemical_formula_structural   GdSI
_chemical_formula_sum   'Gd2 S2 I2'
_cell_volume   605.80386435
_cell_formula_units_Z   2
loop_
 _symmetry_equiv_pos_site_id
 _symmetry_equiv_pos_as_xyz
  1  'x, y, z'
loop_
 _atom_site_type_symbol
 _atom_site_label
 _atom_site_symmetry_multiplicity
 _atom_site_fract_x
 _atom_site_fract_y
 _atom_site_fract_z
 _atom_site_occupancy
  Gd  Gd1  1  0.500000  0.500000  0.456250  1
  Gd  Gd2  1  -0.000000  -0.000000  0.543750  1
  S  S3  1  0.500000  0.000000  0.477336  1
  S  S4  1  -0.000000  0.500000  0.522664  1
  I  I5  1  0.000000  0.500000  0.373225  1
  I  I6  1  0.500000  -0.000000  0.626775  1
