# generated using pymatgen
data_VAg(PS3)2
_symmetry_space_group_name_H-M   'P 1'
_cell_length_a   5.87693505
_cell_length_b   10.75434141
_cell_length_c   23.82961000
_cell_angle_alpha   90.00000000
_cell_angle_beta   89.96676476
_cell_angle_gamma   90.00000000
_symmetry_Int_Tables_number   1
_chemical_formula_structural   VAg(PS3)2
_chemical_formula_sum   'V2 Ag2 P4 S12'
_cell_volume   1506.09224441
_cell_formula_units_Z   2
loop_
 _symmetry_equiv_pos_site_id
 _symmetry_equiv_pos_as_xyz
  1  'x, y, z'
loop_
 _atom_site_type_symbol
 _atom_site_label
 _atom_site_symmetry_multiplicity
 _atom_site_fract_x
 _atom_site_fract_y
 _atom_site_fract_z
 _atom_site_occupancy
  V  V1  1  0.250000  0.930873  0.500000  1
  V  V2  1  0.750000  0.069127  0.500000  1
  Ag  Ag3  1  0.750000  0.436243  0.500000  1
  Ag  Ag4  1  0.250000  0.563757  0.500000  1
  P  P5  1  0.241650  0.249579  0.547031  1
  P  P6  1  0.741650  0.750421  0.547031  1
  P  P7  1  0.758350  0.750421  0.452969  1
  P  P8  1  0.258350  0.249579  0.452969  1
  S  S9  1  0.919236  0.920044  0.563672  1
  S  S10  1  0.607612  0.602572  0.420820  1
  S  S11  1  0.906090  0.229367  0.565156  1
  S  S12  1  0.593910  0.229367  0.434844  1
  S  S13  1  0.107612  0.397428  0.420820  1
  S  S14  1  0.406090  0.770633  0.565156  1
  S  S15  1  0.093910  0.770633  0.434844  1
  S  S16  1  0.580764  0.920044  0.436328  1
  S  S17  1  0.080764  0.079956  0.436328  1
  S  S18  1  0.419236  0.079956  0.563672  1
  S  S19  1  0.392388  0.397428  0.579180  1
  S  S20  1  0.892388  0.602572  0.579180  1
