# generated using pymatgen
data_B2TeO5
_symmetry_space_group_name_H-M   'P 1'
_cell_length_a   9.12473796
_cell_length_b   9.96985125
_cell_length_c   23.57577300
_cell_angle_alpha   90.00000000
_cell_angle_beta   90.00000000
_cell_angle_gamma   90.00000000
_symmetry_Int_Tables_number   1
_chemical_formula_structural   B2TeO5
_chemical_formula_sum   'B8 Te4 O20'
_cell_volume   2144.74182626
_cell_formula_units_Z   4
loop_
 _symmetry_equiv_pos_site_id
 _symmetry_equiv_pos_as_xyz
  1  'x, y, z'
loop_
 _atom_site_type_symbol
 _atom_site_label
 _atom_site_symmetry_multiplicity
 _atom_site_fract_x
 _atom_site_fract_y
 _atom_site_fract_z
 _atom_site_occupancy
  B  B1  1  0.199131  0.480954  0.553767  1
  B  B2  1  0.029164  0.659562  0.525483  1
  B  B3  1  0.699131  0.019046  0.553767  1
  B  B4  1  0.529164  0.840438  0.525483  1
  B  B5  1  0.470836  0.159562  0.474517  1
  B  B6  1  0.300869  0.980954  0.446233  1
  B  B7  1  0.970836  0.340438  0.474517  1
  B  B8  1  0.800869  0.519046  0.446233  1
  Te  Te9  1  0.320245  0.682011  0.465048  1
  Te  Te10  1  0.820245  0.817989  0.465048  1
  Te  Te11  1  0.179755  0.182012  0.534952  1
  Te  Te12  1  0.679755  0.317988  0.534952  1
  O  O13  1  0.196747  0.356015  0.578035  1
  O  O14  1  0.313657  0.526947  0.522125  1
  O  O15  1  0.696747  0.143985  0.578035  1
  O  O16  1  0.113565  0.714976  0.482555  1
  O  O17  1  0.112104  0.290332  0.470590  1
  O  O18  1  0.813657  0.973054  0.522125  1
  O  O19  1  0.570800  0.941884  0.560185  1
  O  O20  1  0.929200  0.441884  0.439815  1
  O  O21  1  0.613565  0.785025  0.482555  1
  O  O22  1  0.612104  0.209668  0.470590  1
  O  O23  1  0.387896  0.790332  0.529410  1
  O  O24  1  0.386435  0.214976  0.517445  1
  O  O25  1  0.070800  0.558117  0.560185  1
  O  O26  1  0.429200  0.058116  0.439815  1
  O  O27  1  0.186343  0.026946  0.477875  1
  O  O28  1  0.887896  0.709668  0.529410  1
  O  O29  1  0.886435  0.285024  0.517445  1
  O  O30  1  0.303253  0.856014  0.421965  1
  O  O31  1  0.686343  0.473054  0.477875  1
  O  O32  1  0.803253  0.643986  0.421965  1
