# generated using pymatgen
data_CuHgSBr
_symmetry_space_group_name_H-M   'P 1'
_cell_length_a   4.02179819
_cell_length_b   10.01983447
_cell_length_c   28.95088700
_cell_angle_alpha   90.00000000
_cell_angle_beta   90.00000000
_cell_angle_gamma   90.00000000
_symmetry_Int_Tables_number   1
_chemical_formula_structural   CuHgSBr
_chemical_formula_sum   'Cu4 Hg4 S4 Br4'
_cell_volume   1166.65566843
_cell_formula_units_Z   4
loop_
 _symmetry_equiv_pos_site_id
 _symmetry_equiv_pos_as_xyz
  1  'x, y, z'
loop_
 _atom_site_type_symbol
 _atom_site_label
 _atom_site_symmetry_multiplicity
 _atom_site_fract_x
 _atom_site_fract_y
 _atom_site_fract_z
 _atom_site_occupancy
  Cu  Cu1  1  0.000000  0.925297  0.390401  1
  Cu  Cu2  1  0.000000  0.591587  0.406636  1
  Cu  Cu3  1  0.000000  0.091587  0.593364  1
  Cu  Cu4  1  -0.000000  0.425297  0.609599  1
  Hg  Hg5  1  0.500000  0.985492  0.493149  1
  Hg  Hg6  1  0.500000  0.485492  0.506851  1
  Hg  Hg7  1  0.500000  0.253561  0.415580  1
  Hg  Hg8  1  0.500000  0.753561  0.584420  1
  S  S9  1  0.500000  0.994727  0.577818  1
  S  S10  1  0.500000  0.494727  0.422182  1
  S  S11  1  0.500000  0.011587  0.408687  1
  S  S12  1  0.500000  0.511587  0.591313  1
  Br  Br13  1  -0.000000  0.737163  0.341876  1
  Br  Br14  1  0.000000  0.743964  0.489619  1
  Br  Br15  1  0.000000  0.243964  0.510381  1
  Br  Br16  1  -0.000000  0.237163  0.658124  1
