# generated using pymatgen
data_Pd(NCl)2
_symmetry_space_group_name_H-M   'P 1'
_cell_length_a   3.41278513
_cell_length_b   4.40010653
_cell_length_c   24.44152900
_cell_angle_alpha   90.00000000
_cell_angle_beta   90.00000000
_cell_angle_gamma   99.97916480
_symmetry_Int_Tables_number   1
_chemical_formula_structural   Pd(NCl)2
_chemical_formula_sum   'Pd1 N2 Cl2'
_cell_volume   361.47626329
_cell_formula_units_Z   1
loop_
 _symmetry_equiv_pos_site_id
 _symmetry_equiv_pos_as_xyz
  1  'x, y, z'
loop_
 _atom_site_type_symbol
 _atom_site_label
 _atom_site_symmetry_multiplicity
 _atom_site_fract_x
 _atom_site_fract_y
 _atom_site_fract_z
 _atom_site_occupancy
  Pd  Pd1  1  0.946190  0.147930  0.507771  1
  N  N2  1  0.909448  0.995468  0.437470  1
  N  N3  1  0.025668  0.388667  0.572283  1
  Cl  Cl4  1  0.967423  0.745079  0.581433  1
  Cl  Cl5  1  0.035319  0.717344  0.401042  1
