# generated using pymatgen
data_Tl2GeS3
_symmetry_space_group_name_H-M   'P 1'
_cell_length_a   6.64972876
_cell_length_b   8.42009954
_cell_length_c   24.24983049
_cell_angle_alpha   90.22414715
_cell_angle_beta   91.72563384
_cell_angle_gamma   88.34636156
_symmetry_Int_Tables_number   1
_chemical_formula_structural   Tl2GeS3
_chemical_formula_sum   'Tl4 Ge2 S6'
_cell_volume   1356.59415454
_cell_formula_units_Z   2
loop_
 _symmetry_equiv_pos_site_id
 _symmetry_equiv_pos_as_xyz
  1  'x, y, z'
loop_
 _atom_site_type_symbol
 _atom_site_label
 _atom_site_symmetry_multiplicity
 _atom_site_fract_x
 _atom_site_fract_y
 _atom_site_fract_z
 _atom_site_occupancy
  Tl  Tl1  1  0.036062  0.955903  0.556988  1
  Tl  Tl2  1  0.485752  0.861374  0.443012  1
  Tl  Tl3  1  0.163723  0.359267  0.411917  1
  Tl  Tl4  1  0.358091  0.458009  0.588083  1
  Ge  Ge5  1  0.832867  0.576352  0.515969  1
  Ge  Ge6  1  0.688947  0.240924  0.484031  1
  S  S7  1  0.142019  0.642323  0.497728  1
  S  S8  1  0.379795  0.174953  0.502272  1
  S  S9  1  0.879210  0.062095  0.444398  1
  S  S10  1  0.834645  0.341638  0.564365  1
  S  S11  1  0.687169  0.475639  0.435635  1
  S  S12  1  0.642604  0.755181  0.555602  1
