# generated using pymatgen
data_KBi2F7
_symmetry_space_group_name_H-M   'P 1'
_cell_length_a   4.13907366
_cell_length_b   4.12793525
_cell_length_c   29.18105800
_cell_angle_alpha   90.00000000
_cell_angle_beta   90.00000000
_cell_angle_gamma   61.28972596
_symmetry_Int_Tables_number   1
_chemical_formula_structural   KBi2F7
_chemical_formula_sum   'K1 Bi2 F7'
_cell_volume   437.28682079
_cell_formula_units_Z   1
loop_
 _symmetry_equiv_pos_site_id
 _symmetry_equiv_pos_as_xyz
  1  'x, y, z'
loop_
 _atom_site_type_symbol
 _atom_site_label
 _atom_site_symmetry_multiplicity
 _atom_site_fract_x
 _atom_site_fract_y
 _atom_site_fract_z
 _atom_site_occupancy
  K  K1  1  0.132838  0.289876  0.498459  1
  Bi  Bi2  1  0.865660  0.968972  0.645666  1
  Bi  Bi3  1  0.601959  0.747186  0.389141  1
  F  F4  1  0.536322  0.632430  0.633888  1
  F  F5  1  0.883035  0.957377  0.576117  1
  F  F6  1  0.920602  0.070796  0.378334  1
  F  F7  1  0.790130  0.948167  0.482699  1
  F  F8  1  0.249782  0.399604  0.410641  1
  F  F9  1  0.203099  0.299179  0.665517  1
  F  F10  1  0.591201  0.747269  0.319540  1
