# generated using pymatgen
data_Zn2Ga2S5
_symmetry_space_group_name_H-M   'P 1'
_cell_length_a   3.68795177
_cell_length_b   3.68795259
_cell_length_c   31.96859900
_cell_angle_alpha   90.00000000
_cell_angle_beta   90.00000000
_cell_angle_gamma   59.99999846
_symmetry_Int_Tables_number   1
_chemical_formula_structural   Zn2Ga2S5
_chemical_formula_sum   'Zn2 Ga2 S5'
_cell_volume   376.55185472
_cell_formula_units_Z   1
loop_
 _symmetry_equiv_pos_site_id
 _symmetry_equiv_pos_as_xyz
  1  'x, y, z'
loop_
 _atom_site_type_symbol
 _atom_site_label
 _atom_site_symmetry_multiplicity
 _atom_site_fract_x
 _atom_site_fract_y
 _atom_site_fract_z
 _atom_site_occupancy
  Zn  Zn1  1  0.333333  0.333333  0.452951  1
  Zn  Zn2  1  0.666667  0.666667  0.547049  1
  Ga  Ga3  1  0.333333  0.333333  0.655311  1
  Ga  Ga4  1  0.666667  0.666667  0.344689  1
  S  S5  1  -0.000000  0.000000  0.500000  1
  S  S6  1  0.333333  0.333333  0.586177  1
  S  S7  1  0.666667  0.666667  0.413823  1
  S  S8  1  -0.000000  -0.000000  0.312621  1
  S  S9  1  -0.000000  0.000000  0.687379  1
