# generated using pymatgen
data_NpBr3
_symmetry_space_group_name_H-M   'P 1'
_cell_length_a   4.06797662
_cell_length_b   9.15112247
_cell_length_c   24.55220239
_cell_angle_alpha   90.00000000
_cell_angle_beta   90.00000000
_cell_angle_gamma   90.00000000
_symmetry_Int_Tables_number   1
_chemical_formula_structural   NpBr3
_chemical_formula_sum   'Np2 Br6'
_cell_volume   913.99384524
_cell_formula_units_Z   2
loop_
 _symmetry_equiv_pos_site_id
 _symmetry_equiv_pos_as_xyz
  1  'x, y, z'
loop_
 _atom_site_type_symbol
 _atom_site_label
 _atom_site_symmetry_multiplicity
 _atom_site_fract_x
 _atom_site_fract_y
 _atom_site_fract_z
 _atom_site_occupancy
  Np  Np1  1  0.500000  0.500000  0.492052  1
  Np  Np2  1  0.000000  -0.000000  0.507948  1
  Br  Br3  1  0.000000  0.318290  0.553531  1
  Br  Br4  1  0.000000  0.500000  0.408252  1
  Br  Br5  1  0.500000  0.181710  0.446469  1
  Br  Br6  1  -0.000000  0.681710  0.553531  1
  Br  Br7  1  0.500000  0.818290  0.446469  1
  Br  Br8  1  0.500000  0.000000  0.591748  1
