# generated using pymatgen
data_Co(HO)2
_symmetry_space_group_name_H-M   'P 1'
_cell_length_a   3.19559875
_cell_length_b   3.19559943
_cell_length_c   23.98559200
_cell_angle_alpha   90.00000000
_cell_angle_beta   90.00000000
_cell_angle_gamma   60.24855271
_symmetry_Int_Tables_number   1
_chemical_formula_structural   Co(HO)2
_chemical_formula_sum   'Co1 H2 O2'
_cell_volume   212.65124960
_cell_formula_units_Z   1
loop_
 _symmetry_equiv_pos_site_id
 _symmetry_equiv_pos_as_xyz
  1  'x, y, z'
loop_
 _atom_site_type_symbol
 _atom_site_label
 _atom_site_symmetry_multiplicity
 _atom_site_fract_x
 _atom_site_fract_y
 _atom_site_fract_z
 _atom_site_occupancy
  Co  Co1  1  0.949743  0.050257  0.500000  1
  H  H2  1  0.599456  0.757414  0.416506  1
  H  H3  1  0.242586  0.400544  0.583494  1
  O  O4  1  0.614681  0.720410  0.456814  1
  O  O5  1  0.279590  0.385319  0.543186  1
