# generated using pymatgen
data_GdGa2Co
_symmetry_space_group_name_H-M   'P 1'
_cell_length_a   3.97792296
_cell_length_b   3.99834520
_cell_length_c   27.48769100
_cell_angle_alpha   90.00000000
_cell_angle_beta   90.00000000
_cell_angle_gamma   89.96275289
_symmetry_Int_Tables_number   1
_chemical_formula_structural   GdGa2Co
_chemical_formula_sum   'Gd2 Ga4 Co2'
_cell_volume   437.19463402
_cell_formula_units_Z   2
loop_
 _symmetry_equiv_pos_site_id
 _symmetry_equiv_pos_as_xyz
  1  'x, y, z'
loop_
 _atom_site_type_symbol
 _atom_site_label
 _atom_site_symmetry_multiplicity
 _atom_site_fract_x
 _atom_site_fract_y
 _atom_site_fract_z
 _atom_site_occupancy
  Gd  Gd1  1  0.000830  0.506360  0.590076  1
  Gd  Gd2  1  0.000405  0.504013  0.409895  1
  Ga  Ga3  1  0.500193  0.004969  0.363319  1
  Ga  Ga4  1  0.500724  0.008271  0.636703  1
  Ga  Ga5  1  0.001038  0.003834  0.499993  1
  Ga  Ga6  1  0.500829  0.501502  0.499994  1
  Co  Co7  1  0.501066  0.001088  0.448889  1
  Co  Co8  1  0.501044  0.000964  0.551130  1
