# generated using pymatgen
data_CuH2(SeO3)2
_symmetry_space_group_name_H-M   'P 1'
_cell_length_a   7.26371291
_cell_length_b   8.76122667
_cell_length_c   23.56190700
_cell_angle_alpha   90.00000000
_cell_angle_beta   90.00000000
_cell_angle_gamma   90.00000000
_symmetry_Int_Tables_number   1
_chemical_formula_structural   CuH2(SeO3)2
_chemical_formula_sum   'Cu2 H4 Se4 O12'
_cell_volume   1499.45703061
_cell_formula_units_Z   2
loop_
 _symmetry_equiv_pos_site_id
 _symmetry_equiv_pos_as_xyz
  1  'x, y, z'
loop_
 _atom_site_type_symbol
 _atom_site_label
 _atom_site_symmetry_multiplicity
 _atom_site_fract_x
 _atom_site_fract_y
 _atom_site_fract_z
 _atom_site_occupancy
  Cu  Cu1  1  -0.000000  0.000000  0.500000  1
  Cu  Cu2  1  0.500000  0.500000  0.500000  1
  H  H3  1  0.606143  0.046319  0.450039  1
  H  H4  1  0.106143  0.453681  0.549961  1
  H  H5  1  0.893857  0.546319  0.450039  1
  H  H6  1  0.393857  0.953681  0.549961  1
  Se  Se7  1  0.658466  0.809700  0.540634  1
  Se  Se8  1  0.158466  0.690300  0.459366  1
  Se  Se9  1  0.841534  0.309700  0.540634  1
  Se  Se10  1  0.341534  0.190300  0.459366  1
  O  O11  1  0.235972  0.532302  0.496961  1
  O  O12  1  0.764028  0.467698  0.503039  1
  O  O13  1  0.735972  0.967698  0.503039  1
  O  O14  1  0.457290  0.283690  0.512707  1
  O  O15  1  0.264028  0.032302  0.496961  1
  O  O16  1  0.957290  0.216310  0.487293  1
  O  O17  1  0.542710  0.716310  0.487293  1
  O  O18  1  0.042710  0.783690  0.512707  1
  O  O19  1  0.524662  0.102474  0.422132  1
  O  O20  1  0.024662  0.397526  0.577868  1
  O  O21  1  0.475338  0.897526  0.577868  1
  O  O22  1  0.975338  0.602474  0.422132  1
