# generated using pymatgen
data_ZnB2(CN)8
_symmetry_space_group_name_H-M   'P 1'
_cell_length_a   7.53944839
_cell_length_b   7.53944855
_cell_length_c   29.78994200
_cell_angle_alpha   90.00000000
_cell_angle_beta   90.00000000
_cell_angle_gamma   119.99999927
_symmetry_Int_Tables_number   1
_chemical_formula_structural   ZnB2(CN)8
_chemical_formula_sum   'Zn1 B2 C8 N8'
_cell_volume   1466.49115160
_cell_formula_units_Z   1
loop_
 _symmetry_equiv_pos_site_id
 _symmetry_equiv_pos_as_xyz
  1  'x, y, z'
loop_
 _atom_site_type_symbol
 _atom_site_label
 _atom_site_symmetry_multiplicity
 _atom_site_fract_x
 _atom_site_fract_y
 _atom_site_fract_z
 _atom_site_occupancy
  Zn  Zn1  1  0.000000  0.000000  0.500000  1
  B  B2  1  0.333333  0.666667  0.572533  1
  B  B3  1  0.666667  0.333333  0.427467  1
  C  C4  1  0.333333  0.666667  0.625134  1
  C  C5  1  0.219303  0.438608  0.553785  1
  C  C6  1  0.561392  0.780697  0.553785  1
  C  C7  1  0.219303  0.780697  0.553785  1
  C  C8  1  0.438608  0.219303  0.446215  1
  C  C9  1  0.780697  0.219303  0.446215  1
  C  C10  1  0.780697  0.561392  0.446215  1
  C  C11  1  0.666667  0.333333  0.374866  1
  N  N12  1  0.333333  0.666667  0.664126  1
  N  N13  1  0.727217  0.863608  0.539997  1
  N  N14  1  0.272783  0.136392  0.460003  1
  N  N15  1  0.863608  0.727217  0.460003  1
  N  N16  1  0.666667  0.333333  0.335874  1
  N  N17  1  0.863608  0.136392  0.460003  1
  N  N18  1  0.136392  0.272783  0.539997  1
  N  N19  1  0.136392  0.863608  0.539997  1
