# generated using pymatgen
data_Nb2Zn2CoO8
_symmetry_space_group_name_H-M   'P 1'
_cell_length_a   5.29410629
_cell_length_b   6.00547298
_cell_length_c   28.54301900
_cell_angle_alpha   90.00000000
_cell_angle_beta   90.00000000
_cell_angle_gamma   90.01752932
_symmetry_Int_Tables_number   1
_chemical_formula_structural   Nb2Zn2CoO8
_chemical_formula_sum   'Nb4 Zn4 Co2 O16'
_cell_volume   907.48563558
_cell_formula_units_Z   2
loop_
 _symmetry_equiv_pos_site_id
 _symmetry_equiv_pos_as_xyz
  1  'x, y, z'
loop_
 _atom_site_type_symbol
 _atom_site_label
 _atom_site_symmetry_multiplicity
 _atom_site_fract_x
 _atom_site_fract_y
 _atom_site_fract_z
 _atom_site_occupancy
  Nb  Nb1  1  0.742865  0.838779  0.422739  1
  Nb  Nb2  1  0.759200  0.839388  0.577123  1
  Nb  Nb3  1  0.259246  0.160637  0.577260  1
  Nb  Nb4  1  0.242940  0.159994  0.422887  1
  Zn  Zn5  1  0.769458  0.341431  0.631201  1
  Zn  Zn6  1  0.732522  0.340439  0.368852  1
  Zn  Zn7  1  0.232650  0.658091  0.368795  1
  Zn  Zn8  1  0.269700  0.658967  0.631132  1
  Co  Co9  1  0.751105  0.356815  0.499986  1
  Co  Co10  1  0.250929  0.642544  0.500020  1
  O  O11  1  0.082194  0.879760  0.454069  1
  O  O12  1  0.419647  0.880114  0.545952  1
  O  O13  1  0.919826  0.119640  0.545934  1
  O  O14  1  0.582381  0.119183  0.454052  1
  O  O15  1  0.588798  0.624610  0.461061  1
  O  O16  1  0.912939  0.625355  0.538775  1
  O  O17  1  0.413277  0.374737  0.538928  1
  O  O18  1  0.089076  0.374044  0.461230  1
  O  O19  1  0.442198  0.902314  0.380948  1
  O  O20  1  0.059687  0.902811  0.619035  1
  O  O21  1  0.375361  0.364480  0.372237  1
  O  O22  1  0.126679  0.365263  0.627792  1
  O  O23  1  0.626850  0.635018  0.627792  1
  O  O24  1  0.875438  0.634155  0.372195  1
  O  O25  1  0.942426  0.096605  0.380961  1
  O  O26  1  0.559882  0.097182  0.619043  1
