# generated using pymatgen
data_CaV2O5
_symmetry_space_group_name_H-M   'P 1'
_cell_length_a   3.99034794
_cell_length_b   9.89216828
_cell_length_c   24.39212800
_cell_angle_alpha   90.00000000
_cell_angle_beta   90.00000000
_cell_angle_gamma   90.00000000
_symmetry_Int_Tables_number   1
_chemical_formula_structural   CaV2O5
_chemical_formula_sum   'Ca2 V4 O10'
_cell_volume   962.83518399
_cell_formula_units_Z   2
loop_
 _symmetry_equiv_pos_site_id
 _symmetry_equiv_pos_as_xyz
  1  'x, y, z'
loop_
 _atom_site_type_symbol
 _atom_site_label
 _atom_site_symmetry_multiplicity
 _atom_site_fract_x
 _atom_site_fract_y
 _atom_site_fract_z
 _atom_site_occupancy
  Ca  Ca1  1  0.500000  0.500000  0.454033  1
  Ca  Ca2  1  0.000000  -0.000000  0.545967  1
  V  V3  1  -0.000000  0.314460  0.537314  1
  V  V4  1  0.500000  0.185540  0.462686  1
  V  V5  1  0.500000  0.814460  0.462686  1
  V  V6  1  0.000000  0.685540  0.537314  1
  O  O7  1  0.500000  -0.000000  0.492225  1
  O  O8  1  0.000000  0.500000  0.507775  1
  O  O9  1  0.500000  0.316084  0.520064  1
  O  O10  1  0.000000  0.183916  0.479936  1
  O  O11  1  0.500000  0.683916  0.520064  1
  O  O12  1  0.000000  0.816084  0.479936  1
  O  O13  1  0.000000  0.788480  0.592511  1
  O  O14  1  0.500000  0.711520  0.407489  1
  O  O15  1  0.500000  0.288480  0.407489  1
  O  O16  1  0.000000  0.211520  0.592511  1
