# generated using pymatgen
data_Ce(SbSe2)2
_symmetry_space_group_name_H-M   'P 1'
_cell_length_a   9.12365590
_cell_length_b   10.57456168
_cell_length_c   23.70731900
_cell_angle_alpha   90.00000000
_cell_angle_beta   90.00000000
_cell_angle_gamma   115.55621254
_symmetry_Int_Tables_number   1
_chemical_formula_structural   Ce(SbSe2)2
_chemical_formula_sum   'Ce2 Sb4 Se8'
_cell_volume   2063.47150530
_cell_formula_units_Z   2
loop_
 _symmetry_equiv_pos_site_id
 _symmetry_equiv_pos_as_xyz
  1  'x, y, z'
loop_
 _atom_site_type_symbol
 _atom_site_label
 _atom_site_symmetry_multiplicity
 _atom_site_fract_x
 _atom_site_fract_y
 _atom_site_fract_z
 _atom_site_occupancy
  Ce  Ce1  1  0.905327  0.810655  0.466887  1
  Ce  Ce2  1  0.094673  0.189345  0.533113  1
  Sb  Sb3  1  0.557419  0.114838  0.460913  1
  Sb  Sb4  1  0.442581  0.885162  0.539087  1
  Sb  Sb5  1  0.259774  0.519550  0.475027  1
  Sb  Sb6  1  0.740226  0.480450  0.524973  1
  Se  Se7  1  0.762492  0.524983  0.420031  1
  Se  Se8  1  0.237508  0.475017  0.579969  1
  Se  Se9  1  0.039792  0.079585  0.426510  1
  Se  Se10  1  0.960208  0.920415  0.573490  1
  Se  Se11  1  0.181804  0.743099  0.475929  1
  Se  Se12  1  0.561295  0.743099  0.475929  1
  Se  Se13  1  0.818196  0.256901  0.524071  1
  Se  Se14  1  0.438705  0.256901  0.524071  1
