# generated using pymatgen
data_Tb(CuS)2
_symmetry_space_group_name_H-M   'P 1'
_cell_length_a   3.87983563
_cell_length_b   3.87983540
_cell_length_c   24.18644400
_cell_angle_alpha   90.00000000
_cell_angle_beta   90.00000000
_cell_angle_gamma   60.04891023
_symmetry_Int_Tables_number   1
_chemical_formula_structural   Tb(CuS)2
_chemical_formula_sum   'Tb1 Cu2 S2'
_cell_volume   315.45913841
_cell_formula_units_Z   1
loop_
 _symmetry_equiv_pos_site_id
 _symmetry_equiv_pos_as_xyz
  1  'x, y, z'
loop_
 _atom_site_type_symbol
 _atom_site_label
 _atom_site_symmetry_multiplicity
 _atom_site_fract_x
 _atom_site_fract_y
 _atom_site_fract_z
 _atom_site_occupancy
  Tb  Tb1  1  0.000000  0.000000  0.500000  1
  Cu  Cu2  1  0.333301  0.333301  0.582127  1
  Cu  Cu3  1  0.666699  0.666699  0.417873  1
  S  S4  1  0.333123  0.333123  0.422495  1
  S  S5  1  0.666877  0.666877  0.577505  1
