# generated using pymatgen
data_As2Pb2O5
_symmetry_space_group_name_H-M   'P 1'
_cell_length_a   5.78593712
_cell_length_b   13.64865262
_cell_length_c   26.34680600
_cell_angle_alpha   90.00000000
_cell_angle_beta   90.00000000
_cell_angle_gamma   90.00000000
_symmetry_Int_Tables_number   1
_chemical_formula_structural   As2Pb2O5
_chemical_formula_sum   'As8 Pb8 O20'
_cell_volume   2080.61374671
_cell_formula_units_Z   4
loop_
 _symmetry_equiv_pos_site_id
 _symmetry_equiv_pos_as_xyz
  1  'x, y, z'
loop_
 _atom_site_type_symbol
 _atom_site_label
 _atom_site_symmetry_multiplicity
 _atom_site_fract_x
 _atom_site_fract_y
 _atom_site_fract_z
 _atom_site_occupancy
  As  As1  1  0.885486  0.434078  0.620135  1
  As  As2  1  0.385486  0.897239  0.379865  1
  As  As3  1  0.114514  0.397239  0.379865  1
  As  As4  1  0.614514  0.934078  0.620135  1
  As  As5  1  0.128381  0.573283  0.534632  1
  As  As6  1  0.628381  0.758034  0.465368  1
  As  As7  1  0.871619  0.258034  0.465368  1
  As  As8  1  0.371619  0.073283  0.534632  1
  Pb  Pb9  1  0.351959  0.332401  0.547166  1
  Pb  Pb10  1  0.851959  0.998916  0.452834  1
  Pb  Pb11  1  0.648041  0.498916  0.452834  1
  Pb  Pb12  1  0.148041  0.832401  0.547166  1
  Pb  Pb13  1  0.650938  0.695669  0.603916  1
  Pb  Pb14  1  0.150938  0.635648  0.396084  1
  Pb  Pb15  1  0.349062  0.135648  0.396084  1
  Pb  Pb16  1  0.849062  0.195669  0.603916  1
  O  O17  1  0.665716  0.345537  0.607803  1
  O  O18  1  0.165716  0.985780  0.392197  1
  O  O19  1  0.334284  0.485780  0.392197  1
  O  O20  1  0.834284  0.845537  0.607803  1
  O  O21  1  0.115561  0.347884  0.615999  1
  O  O22  1  0.615561  0.983433  0.384001  1
  O  O23  1  0.884439  0.483433  0.384001  1
  O  O24  1  0.384439  0.847884  0.615999  1
  O  O25  1  0.890672  0.488789  0.554063  1
  O  O26  1  0.390672  0.842528  0.445937  1
  O  O27  1  0.109328  0.342528  0.445937  1
  O  O28  1  0.609328  0.988789  0.554063  1
  O  O29  1  0.040357  0.675428  0.573136  1
  O  O30  1  0.540357  0.655889  0.426864  1
  O  O31  1  0.959643  0.155889  0.426864  1
  O  O32  1  0.459643  0.175428  0.573136  1
  O  O33  1  0.997945  0.607470  0.475795  1
  O  O34  1  0.497945  0.723847  0.524205  1
  O  O35  1  0.002055  0.223847  0.524205  1
  O  O36  1  0.502055  0.107470  0.475795  1
