# generated using pymatgen
data_FeCl2
_symmetry_space_group_name_H-M   'P 1'
_cell_length_a   3.48746545
_cell_length_b   3.48746559
_cell_length_c   22.80373700
_cell_angle_alpha   90.00000000
_cell_angle_beta   90.00000000
_cell_angle_gamma   60.00000143
_symmetry_Int_Tables_number   1
_chemical_formula_structural   FeCl2
_chemical_formula_sum   'Fe1 Cl2'
_cell_volume   240.19087630
_cell_formula_units_Z   1
loop_
 _symmetry_equiv_pos_site_id
 _symmetry_equiv_pos_as_xyz
  1  'x, y, z'
loop_
 _atom_site_type_symbol
 _atom_site_label
 _atom_site_symmetry_multiplicity
 _atom_site_fract_x
 _atom_site_fract_y
 _atom_site_fract_z
 _atom_site_occupancy
  Fe  Fe1  1  0.000000  -0.000000  0.500000  1
  Cl  Cl2  1  0.666667  0.666667  0.437977  1
  Cl  Cl3  1  0.333333  0.333333  0.562023  1
