# generated using pymatgen
data_CrSBr
_symmetry_space_group_name_H-M   'P 1'
_cell_length_a   3.53931001
_cell_length_b   4.72613941
_cell_length_c   25.65363900
_cell_angle_alpha   90.00000000
_cell_angle_beta   90.00000000
_cell_angle_gamma   90.00000000
_symmetry_Int_Tables_number   1
_chemical_formula_structural   CrSBr
_chemical_formula_sum   'Cr2 S2 Br2'
_cell_volume   429.11541075
_cell_formula_units_Z   2
loop_
 _symmetry_equiv_pos_site_id
 _symmetry_equiv_pos_as_xyz
  1  'x, y, z'
loop_
 _atom_site_type_symbol
 _atom_site_label
 _atom_site_symmetry_multiplicity
 _atom_site_fract_x
 _atom_site_fract_y
 _atom_site_fract_z
 _atom_site_occupancy
  Cr  Cr1  1  0.500000  -0.000000  0.459756  1
  Cr  Cr2  1  0.000000  0.500000  0.540244  1
  S  S3  1  0.500000  0.500000  0.477599  1
  S  S4  1  -0.000000  -0.000000  0.522401  1
  Br  Br5  1  -0.000000  -0.000000  0.389851  1
  Br  Br6  1  0.500000  0.500000  0.610149  1
