# generated using pymatgen
data_EuIO
_symmetry_space_group_name_H-M   'P 1'
_cell_length_a   4.01009827
_cell_length_b   4.01009827
_cell_length_c   26.57140462
_cell_angle_alpha   90.00000000
_cell_angle_beta   90.00000000
_cell_angle_gamma   90.00000000
_symmetry_Int_Tables_number   1
_chemical_formula_structural   EuIO
_chemical_formula_sum   'Eu2 I2 O2'
_cell_volume   427.29178529
_cell_formula_units_Z   2
loop_
 _symmetry_equiv_pos_site_id
 _symmetry_equiv_pos_as_xyz
  1  'x, y, z'
loop_
 _atom_site_type_symbol
 _atom_site_label
 _atom_site_symmetry_multiplicity
 _atom_site_fract_x
 _atom_site_fract_y
 _atom_site_fract_z
 _atom_site_occupancy
  Eu  Eu1  1  0.500000  0.000000  0.456854  1
  Eu  Eu2  1  -0.000000  0.500000  0.543146  1
  I  I3  1  0.500000  -0.000000  0.617907  1
  I  I4  1  0.000000  0.500000  0.382093  1
  O  O5  1  -0.000000  0.000000  0.500000  1
  O  O6  1  0.500000  0.500000  0.500000  1
