# generated using pymatgen
data_CrTe4Au
_symmetry_space_group_name_H-M   'P 1'
_cell_length_a   3.86765210
_cell_length_b   6.54941815
_cell_length_c   23.27381800
_cell_angle_alpha   90.00000000
_cell_angle_beta   90.00000000
_cell_angle_gamma   90.00000000
_symmetry_Int_Tables_number   1
_chemical_formula_structural   CrTe4Au
_chemical_formula_sum   'Cr1 Te4 Au1'
_cell_volume   589.54607821
_cell_formula_units_Z   1
loop_
 _symmetry_equiv_pos_site_id
 _symmetry_equiv_pos_as_xyz
  1  'x, y, z'
loop_
 _atom_site_type_symbol
 _atom_site_label
 _atom_site_symmetry_multiplicity
 _atom_site_fract_x
 _atom_site_fract_y
 _atom_site_fract_z
 _atom_site_occupancy
  Cr  Cr1  1  0.500000  0.500000  0.500000  1
  Te  Te2  1  0.500000  0.821465  0.570659  1
  Te  Te3  1  -0.000000  0.368440  0.572572  1
  Te  Te4  1  0.500000  0.178535  0.429341  1
  Te  Te5  1  0.000000  0.631560  0.427428  1
  Au  Au6  1  0.000000  0.000000  0.500000  1
