# generated using pymatgen
data_Eu(ReO4)2
_symmetry_space_group_name_H-M   'P 1'
_cell_length_a   6.25647106
_cell_length_b   6.25641298
_cell_length_c   27.41308300
_cell_angle_alpha   90.00000000
_cell_angle_beta   90.00000000
_cell_angle_gamma   60.00146528
_symmetry_Int_Tables_number   1
_chemical_formula_structural   Eu(ReO4)2
_chemical_formula_sum   'Eu1 Re2 O8'
_cell_volume   929.28680958
_cell_formula_units_Z   1
loop_
 _symmetry_equiv_pos_site_id
 _symmetry_equiv_pos_as_xyz
  1  'x, y, z'
loop_
 _atom_site_type_symbol
 _atom_site_label
 _atom_site_symmetry_multiplicity
 _atom_site_fract_x
 _atom_site_fract_y
 _atom_site_fract_z
 _atom_site_occupancy
  Eu  Eu1  1  -0.000053  0.000014  0.500010  1
  Re  Re2  1  0.666640  0.666678  0.427955  1
  Re  Re3  1  0.333326  0.333367  0.572044  1
  O  O4  1  0.361999  0.779941  0.449960  1
  O  O5  1  0.779941  0.858062  0.449949  1
  O  O6  1  0.666609  0.666692  0.364906  1
  O  O7  1  0.141941  0.637998  0.550041  1
  O  O8  1  0.858026  0.362005  0.449953  1
  O  O9  1  0.333329  0.333382  0.635094  1
  O  O10  1  0.220053  0.141982  0.550043  1
  O  O11  1  0.637988  0.220080  0.550045  1
