# generated using pymatgen
data_MgSb2O5
_symmetry_space_group_name_H-M   'P 1'
_cell_length_a   3.89966163
_cell_length_b   5.51621858
_cell_length_c   23.84586964
_cell_angle_alpha   90.00000000
_cell_angle_beta   90.00000000
_cell_angle_gamma   110.69984797
_symmetry_Int_Tables_number   1
_chemical_formula_structural   MgSb2O5
_chemical_formula_sum   'Mg1 Sb2 O5'
_cell_volume   479.84370447
_cell_formula_units_Z   1
loop_
 _symmetry_equiv_pos_site_id
 _symmetry_equiv_pos_as_xyz
  1  'x, y, z'
loop_
 _atom_site_type_symbol
 _atom_site_label
 _atom_site_symmetry_multiplicity
 _atom_site_fract_x
 _atom_site_fract_y
 _atom_site_fract_z
 _atom_site_occupancy
  Mg  Mg1  1  0.902766  0.805533  0.500000  1
  Sb  Sb2  1  0.205266  0.410533  0.423160  1
  Sb  Sb3  1  0.205266  0.410533  0.576840  1
  O  O4  1  0.304003  0.608007  0.500000  1
  O  O5  1  0.757670  0.515339  0.585320  1
  O  O6  1  0.757669  0.515339  0.414680  1
  O  O7  1  0.027769  0.055538  0.438987  1
  O  O8  1  0.027770  0.055538  0.561013  1
