# generated using pymatgen
data_NbCoTe2
_symmetry_space_group_name_H-M   'P 1'
_cell_length_a   6.36215863
_cell_length_b   7.76839580
_cell_length_c   24.68155700
_cell_angle_alpha   90.00000000
_cell_angle_beta   90.00000000
_cell_angle_gamma   90.00000000
_symmetry_Int_Tables_number   1
_chemical_formula_structural   NbCoTe2
_chemical_formula_sum   'Nb4 Co4 Te8'
_cell_volume   1219.85550707
_cell_formula_units_Z   4
loop_
 _symmetry_equiv_pos_site_id
 _symmetry_equiv_pos_as_xyz
  1  'x, y, z'
loop_
 _atom_site_type_symbol
 _atom_site_label
 _atom_site_symmetry_multiplicity
 _atom_site_fract_x
 _atom_site_fract_y
 _atom_site_fract_z
 _atom_site_occupancy
  Nb  Nb1  1  0.487534  0.250476  0.496589  1
  Nb  Nb2  1  0.512466  0.654175  0.503411  1
  Nb  Nb3  1  0.987534  0.154175  0.503411  1
  Nb  Nb4  1  0.012466  0.750476  0.496589  1
  Co  Co5  1  0.854790  0.458017  0.467131  1
  Co  Co6  1  0.354790  0.946635  0.532869  1
  Co  Co7  1  0.645210  0.958017  0.467131  1
  Co  Co8  1  0.145210  0.446635  0.532869  1
  Te  Te9  1  0.253173  0.977732  0.430575  1
  Te  Te10  1  0.748331  0.709665  0.404987  1
  Te  Te11  1  0.248331  0.694986  0.595013  1
  Te  Te12  1  0.753173  0.426920  0.569425  1
  Te  Te13  1  0.751669  0.209665  0.404987  1
  Te  Te14  1  0.251669  0.194986  0.595013  1
  Te  Te15  1  0.246827  0.477732  0.430575  1
  Te  Te16  1  0.746827  0.926920  0.569425  1
