# generated using pymatgen
data_SnClF
_symmetry_space_group_name_H-M   'P 1'
_cell_length_a   3.94469358
_cell_length_b   3.94469358
_cell_length_c   25.14538600
_cell_angle_alpha   90.00000000
_cell_angle_beta   90.00000000
_cell_angle_gamma   90.00000000
_symmetry_Int_Tables_number   1
_chemical_formula_structural   SnClF
_chemical_formula_sum   'Sn2 Cl2 F2'
_cell_volume   391.27748048
_cell_formula_units_Z   2
loop_
 _symmetry_equiv_pos_site_id
 _symmetry_equiv_pos_as_xyz
  1  'x, y, z'
loop_
 _atom_site_type_symbol
 _atom_site_label
 _atom_site_symmetry_multiplicity
 _atom_site_fract_x
 _atom_site_fract_y
 _atom_site_fract_z
 _atom_site_occupancy
  Sn  Sn1  1  0.500000  0.000000  0.560165  1
  Sn  Sn2  1  -0.000000  0.500000  0.439835  1
  Cl  Cl3  1  -0.000000  0.500000  0.605492  1
  Cl  Cl4  1  0.500000  0.000000  0.394508  1
  F  F5  1  0.500000  0.500000  0.500000  1
  F  F6  1  0.000000  0.000000  0.500000  1
