# generated using pymatgen
data_YbCl3
_symmetry_space_group_name_H-M   'P 1'
_cell_length_a   3.84969191
_cell_length_b   7.96197533
_cell_length_c   23.78889500
_cell_angle_alpha   90.00000000
_cell_angle_beta   90.00000000
_cell_angle_gamma   90.00000000
_symmetry_Int_Tables_number   1
_chemical_formula_structural   YbCl3
_chemical_formula_sum   'Yb2 Cl6'
_cell_volume   729.15703693
_cell_formula_units_Z   2
loop_
 _symmetry_equiv_pos_site_id
 _symmetry_equiv_pos_as_xyz
  1  'x, y, z'
loop_
 _atom_site_type_symbol
 _atom_site_label
 _atom_site_symmetry_multiplicity
 _atom_site_fract_x
 _atom_site_fract_y
 _atom_site_fract_z
 _atom_site_occupancy
  Yb  Yb1  1  0.500000  -0.000000  0.499539  1
  Yb  Yb2  1  0.000000  0.500000  0.500461  1
  Cl  Cl3  1  0.000000  0.816513  0.440295  1
  Cl  Cl4  1  0.500000  0.683487  0.559705  1
  Cl  Cl5  1  0.500000  0.316513  0.559705  1
  Cl  Cl6  1  0.000000  0.183487  0.440295  1
  Cl  Cl7  1  -0.000000  -0.000000  0.580410  1
  Cl  Cl8  1  0.500000  0.500000  0.419590  1
