# generated using pymatgen
data_LiMnPO4
_symmetry_space_group_name_H-M   'P 1'
_cell_length_a   4.91530025
_cell_length_b   6.29649524
_cell_length_c   23.11394117
_cell_angle_alpha   90.00000000
_cell_angle_beta   90.85841575
_cell_angle_gamma   90.00000000
_symmetry_Int_Tables_number   1
_chemical_formula_structural   LiMnPO4
_chemical_formula_sum   'Li2 Mn2 P2 O8'
_cell_volume   715.27688588
_cell_formula_units_Z   2
loop_
 _symmetry_equiv_pos_site_id
 _symmetry_equiv_pos_as_xyz
  1  'x, y, z'
loop_
 _atom_site_type_symbol
 _atom_site_label
 _atom_site_symmetry_multiplicity
 _atom_site_fract_x
 _atom_site_fract_y
 _atom_site_fract_z
 _atom_site_occupancy
  Li  Li1  1  0.540497  0.250000  0.420238  1
  Li  Li2  1  0.459503  0.750000  0.579762  1
  Mn  Mn3  1  -0.000000  0.000000  0.500000  1
  Mn  Mn4  1  -0.000000  0.500000  0.500000  1
  P  P5  1  0.573565  0.750000  0.455194  1
  P  P6  1  0.426435  0.250000  0.544806  1
  O  O7  1  0.277444  0.250000  0.481710  1
  O  O8  1  0.261762  0.750000  0.464748  1
  O  O9  1  0.676183  0.957343  0.427417  1
  O  O10  1  0.676183  0.542657  0.427417  1
  O  O11  1  0.323817  0.457343  0.572583  1
  O  O12  1  0.323817  0.042657  0.572583  1
  O  O13  1  0.738238  0.250000  0.535252  1
  O  O14  1  0.722556  0.750000  0.518290  1
