# generated using pymatgen
data_KBi(PSe3)2
_symmetry_space_group_name_H-M   'P 1'
_cell_length_a   7.68008748
_cell_length_b   12.18712216
_cell_length_c   30.41267800
_cell_angle_alpha   90.00000000
_cell_angle_beta   90.00000000
_cell_angle_gamma   90.00000000
_symmetry_Int_Tables_number   1
_chemical_formula_structural   KBi(PSe3)2
_chemical_formula_sum   'K4 Bi4 P8 Se24'
_cell_volume   2846.57083280
_cell_formula_units_Z   4
loop_
 _symmetry_equiv_pos_site_id
 _symmetry_equiv_pos_as_xyz
  1  'x, y, z'
loop_
 _atom_site_type_symbol
 _atom_site_label
 _atom_site_symmetry_multiplicity
 _atom_site_fract_x
 _atom_site_fract_y
 _atom_site_fract_z
 _atom_site_occupancy
  K  K1  1  0.428853  0.947217  0.462544  1
  K  K2  1  0.571147  0.614828  0.537456  1
  K  K3  1  0.071147  0.447217  0.462544  1
  K  K4  1  0.928853  0.114828  0.537456  1
  Bi  Bi5  1  0.364898  0.303997  0.635317  1
  Bi  Bi6  1  0.864898  0.758048  0.364683  1
  Bi  Bi7  1  0.635102  0.258048  0.364683  1
  Bi  Bi8  1  0.135102  0.803997  0.635317  1
  P  P9  1  0.915995  0.055676  0.396468  1
  P  P10  1  0.363664  0.682618  0.395408  1
  P  P11  1  0.136336  0.182618  0.395408  1
  P  P12  1  0.863664  0.379427  0.604592  1
  P  P13  1  0.584005  0.555676  0.396468  1
  P  P14  1  0.415995  0.006369  0.603532  1
  P  P15  1  0.636336  0.879427  0.604592  1
  P  P16  1  0.084005  0.506369  0.603532  1
  Se  Se17  1  0.496148  0.831204  0.368260  1
  Se  Se18  1  0.770047  0.369861  0.536222  1
  Se  Se19  1  0.284157  0.422856  0.560405  1
  Se  Se20  1  0.669113  0.448218  0.650288  1
  Se  Se21  1  0.503852  0.730841  0.631740  1
  Se  Se22  1  0.830887  0.948218  0.650288  1
  Se  Se23  1  0.784157  0.639189  0.439595  1
  Se  Se24  1  0.215843  0.922856  0.560405  1
  Se  Se25  1  0.270047  0.692185  0.463778  1
  Se  Se26  1  0.484804  0.403953  0.429310  1
  Se  Se27  1  0.729953  0.869861  0.536222  1
  Se  Se28  1  0.187642  0.525758  0.669980  1
  Se  Se29  1  0.169113  0.613827  0.349712  1
  Se  Se30  1  0.515196  0.158092  0.570690  1
  Se  Se31  1  0.715843  0.139189  0.439595  1
  Se  Se32  1  0.687642  0.536287  0.330020  1
  Se  Se33  1  0.812358  0.036287  0.330020  1
  Se  Se34  1  0.330887  0.113827  0.349712  1
  Se  Se35  1  0.003852  0.331204  0.368260  1
  Se  Se36  1  0.996148  0.230841  0.631740  1
  Se  Se37  1  0.984804  0.658092  0.570690  1
  Se  Se38  1  0.312358  0.025758  0.669980  1
  Se  Se39  1  0.015196  0.903953  0.429310  1
  Se  Se40  1  0.229953  0.192185  0.463778  1
