# generated using pymatgen
data_NiCl2
_symmetry_space_group_name_H-M   'P 1'
_cell_length_a   3.45200061
_cell_length_b   3.45200099
_cell_length_c   22.61355000
_cell_angle_alpha   90.00000000
_cell_angle_beta   90.00000000
_cell_angle_gamma   59.99999419
_symmetry_Int_Tables_number   1
_chemical_formula_structural   NiCl2
_chemical_formula_sum   'Ni1 Cl2'
_cell_volume   233.36790521
_cell_formula_units_Z   1
loop_
 _symmetry_equiv_pos_site_id
 _symmetry_equiv_pos_as_xyz
  1  'x, y, z'
loop_
 _atom_site_type_symbol
 _atom_site_label
 _atom_site_symmetry_multiplicity
 _atom_site_fract_x
 _atom_site_fract_y
 _atom_site_fract_z
 _atom_site_occupancy
  Ni  Ni1  1  0.666667  0.666667  0.500000  1
  Cl  Cl2  1  -0.000000  0.000000  0.558354  1
  Cl  Cl3  1  0.333333  0.333333  0.441646  1
