# generated using pymatgen
data_Fe(CO3)2
_symmetry_space_group_name_H-M   'P 1'
_cell_length_a   4.74815335
_cell_length_b   4.74815355
_cell_length_c   22.32658200
_cell_angle_alpha   90.00000000
_cell_angle_beta   90.00000000
_cell_angle_gamma   60.00000140
_symmetry_Int_Tables_number   1
_chemical_formula_structural   Fe(CO3)2
_chemical_formula_sum   'Fe1 C2 O6'
_cell_volume   435.91555952
_cell_formula_units_Z   1
loop_
 _symmetry_equiv_pos_site_id
 _symmetry_equiv_pos_as_xyz
  1  'x, y, z'
loop_
 _atom_site_type_symbol
 _atom_site_label
 _atom_site_symmetry_multiplicity
 _atom_site_fract_x
 _atom_site_fract_y
 _atom_site_fract_z
 _atom_site_occupancy
  Fe  Fe1  1  0.000000  -0.000000  0.500000  1
  C  C2  1  0.666667  0.666667  0.448405  1
  C  C3  1  0.333333  0.333333  0.551595  1
  O  O4  1  0.297030  0.620240  0.551776  1
  O  O5  1  0.379760  0.917270  0.448224  1
  O  O6  1  0.917270  0.702970  0.448224  1
  O  O7  1  0.082730  0.297030  0.551776  1
  O  O8  1  0.620240  0.082730  0.551776  1
  O  O9  1  0.702970  0.379760  0.448224  1
