# generated using pymatgen
data_SrCO3
_symmetry_space_group_name_H-M   'P 1'
_cell_length_a   5.88198849
_cell_length_b   8.11266076
_cell_length_c   23.98830700
_cell_angle_alpha   90.00000000
_cell_angle_beta   90.00000000
_cell_angle_gamma   90.00000000
_symmetry_Int_Tables_number   1
_chemical_formula_structural   SrCO3
_chemical_formula_sum   'Sr2 C2 O6'
_cell_volume   1144.68787980
_cell_formula_units_Z   2
loop_
 _symmetry_equiv_pos_site_id
 _symmetry_equiv_pos_as_xyz
  1  'x, y, z'
loop_
 _atom_site_type_symbol
 _atom_site_label
 _atom_site_symmetry_multiplicity
 _atom_site_fract_x
 _atom_site_fract_y
 _atom_site_fract_z
 _atom_site_occupancy
  Sr  Sr1  1  0.500000  0.860255  0.500000  1
  Sr  Sr2  1  0.000000  0.360255  0.500000  1
  C  C3  1  -0.000000  0.766075  0.556605  1
  C  C4  1  0.000000  0.954434  0.443395  1
  O  O5  1  0.191255  0.886247  0.433990  1
  O  O6  1  0.000000  0.106057  0.465682  1
  O  O7  1  0.808745  0.886247  0.433990  1
  O  O8  1  0.191255  0.834262  0.566010  1
  O  O9  1  0.808745  0.834262  0.566010  1
  O  O10  1  -0.000000  0.614452  0.534318  1
