# generated using pymatgen
data_Cu3OF5
_symmetry_space_group_name_H-M   'P 1'
_cell_length_a   5.25770524
_cell_length_b   5.52538037
_cell_length_c   27.26745898
_cell_angle_alpha   74.92944011
_cell_angle_beta   93.95479275
_cell_angle_gamma   79.47115374
_symmetry_Int_Tables_number   1
_chemical_formula_structural   Cu3OF5
_chemical_formula_sum   'Cu6 O2 F10'
_cell_volume   746.33688961
_cell_formula_units_Z   2
loop_
 _symmetry_equiv_pos_site_id
 _symmetry_equiv_pos_as_xyz
  1  'x, y, z'
loop_
 _atom_site_type_symbol
 _atom_site_label
 _atom_site_symmetry_multiplicity
 _atom_site_fract_x
 _atom_site_fract_y
 _atom_site_fract_z
 _atom_site_occupancy
  Cu  Cu1  1  0.899302  0.416316  0.390737  1
  Cu  Cu2  1  0.447320  0.193435  0.439329  1
  Cu  Cu3  1  0.552680  0.806565  0.560671  1
  Cu  Cu4  1  0.100698  0.583684  0.609263  1
  Cu  Cu5  1  -0.000000  0.500000  0.500000  1
  Cu  Cu6  1  -0.000000  -0.000000  0.500000  1
  O  O7  1  0.119610  0.382655  0.448841  1
  O  O8  1  0.880390  0.617345  0.551159  1
  F  F9  1  0.677681  0.119934  0.525748  1
  F  F10  1  0.186248  0.300630  0.365574  1
  F  F11  1  0.686433  0.434118  0.337169  1
  F  F12  1  0.790190  0.981202  0.440625  1
  F  F13  1  0.621240  0.490679  0.426193  1
  F  F14  1  0.378760  0.509321  0.573807  1
  F  F15  1  0.209810  0.018798  0.559375  1
  F  F16  1  0.313567  0.565882  0.662831  1
  F  F17  1  0.813752  0.699370  0.634426  1
  F  F18  1  0.322319  0.880066  0.474252  1
