# generated using pymatgen
data_TiNb2Zn2O8
_symmetry_space_group_name_H-M   'P 1'
_cell_length_a   5.28909055
_cell_length_b   5.98329576
_cell_length_c   28.64287978
_cell_angle_alpha   90.10480271
_cell_angle_beta   90.33302580
_cell_angle_gamma   88.41513454
_symmetry_Int_Tables_number   1
_chemical_formula_structural   TiNb2Zn2O8
_chemical_formula_sum   'Ti2 Nb4 Zn4 O16'
_cell_volume   906.07478354
_cell_formula_units_Z   2
loop_
 _symmetry_equiv_pos_site_id
 _symmetry_equiv_pos_as_xyz
  1  'x, y, z'
loop_
 _atom_site_type_symbol
 _atom_site_label
 _atom_site_symmetry_multiplicity
 _atom_site_fract_x
 _atom_site_fract_y
 _atom_site_fract_z
 _atom_site_occupancy
  Ti  Ti1  1  0.235929  0.636769  0.501381  1
  Ti  Ti2  1  0.766727  0.364380  0.498622  1
  Nb  Nb3  1  0.290819  0.139387  0.420917  1
  Nb  Nb4  1  0.265989  0.119549  0.576853  1
  Nb  Nb5  1  0.711719  0.861765  0.579140  1
  Nb  Nb6  1  0.736643  0.881454  0.423129  1
  Zn  Zn7  1  0.210578  0.633939  0.632529  1
  Zn  Zn8  1  0.272070  0.651646  0.374154  1
  Zn  Zn9  1  0.791721  0.366849  0.367361  1
  Zn  Zn10  1  0.730532  0.349400  0.625864  1
  O  O11  1  0.911292  0.146685  0.456262  1
  O  O12  1  0.599311  0.150504  0.539008  1
  O  O13  1  0.091287  0.854465  0.543735  1
  O  O14  1  0.403426  0.850481  0.460969  1
  O  O15  1  0.420747  0.381599  0.462726  1
  O  O16  1  0.074423  0.372036  0.535008  1
  O  O17  1  0.581932  0.619596  0.537277  1
  O  O18  1  0.928252  0.629193  0.464990  1
  O  O19  1  0.587480  0.119663  0.376711  1
  O  O20  1  0.922207  0.085441  0.614657  1
  O  O21  1  0.635379  0.656779  0.376291  1
  O  O22  1  0.858158  0.635938  0.628533  1
  O  O23  1  0.367249  0.344158  0.623671  1
  O  O24  1  0.144089  0.365204  0.371565  1
  O  O25  1  0.080404  0.915599  0.385372  1
  O  O26  1  0.414856  0.881232  0.623273  1
