# generated using pymatgen
data_Li6Br3N
_symmetry_space_group_name_H-M   'P 1'
_cell_length_a   6.29794685
_cell_length_b   5.75770457
_cell_length_c   24.32299400
_cell_angle_alpha   90.00000000
_cell_angle_beta   90.00000000
_cell_angle_gamma   76.79163231
_symmetry_Int_Tables_number   1
_chemical_formula_structural   Li6Br3N
_chemical_formula_sum   'Li6 Br3 N1'
_cell_volume   858.66087337
_cell_formula_units_Z   1
loop_
 _symmetry_equiv_pos_site_id
 _symmetry_equiv_pos_as_xyz
  1  'x, y, z'
loop_
 _atom_site_type_symbol
 _atom_site_label
 _atom_site_symmetry_multiplicity
 _atom_site_fract_x
 _atom_site_fract_y
 _atom_site_fract_z
 _atom_site_occupancy
  Li  Li1  1  0.838656  0.744121  0.500000  1
  Li  Li2  1  0.822035  0.200442  0.553761  1
  Li  Li3  1  0.177965  0.799558  0.553761  1
  Li  Li4  1  0.822035  0.200442  0.446239  1
  Li  Li5  1  0.177965  0.799558  0.446239  1
  Li  Li6  1  0.161344  0.255879  0.500000  1
  Br  Br7  1  -0.000000  0.500000  0.406633  1
  Br  Br8  1  0.500000  0.500000  0.500000  1
  Br  Br9  1  -0.000000  0.500000  0.593367  1
  N  N10  1  -0.000000  0.000000  0.500000  1
