# generated using pymatgen
data_W(OF)2
_symmetry_space_group_name_H-M   'P 1'
_cell_length_a   3.87549054
_cell_length_b   7.70498600
_cell_length_c   23.75908400
_cell_angle_alpha   90.00000000
_cell_angle_beta   90.00000000
_cell_angle_gamma   90.00000000
_symmetry_Int_Tables_number   1
_chemical_formula_structural   W(OF)2
_chemical_formula_sum   'W2 O4 F4'
_cell_volume   709.46051210
_cell_formula_units_Z   2
loop_
 _symmetry_equiv_pos_site_id
 _symmetry_equiv_pos_as_xyz
  1  'x, y, z'
loop_
 _atom_site_type_symbol
 _atom_site_label
 _atom_site_symmetry_multiplicity
 _atom_site_fract_x
 _atom_site_fract_y
 _atom_site_fract_z
 _atom_site_occupancy
  W  W1  1  0.464128  0.977042  0.500000  1
  W  W2  1  0.535872  0.477042  0.500000  1
  O  O3  1  0.990821  0.967263  0.500000  1
  O  O4  1  0.502134  0.716650  0.500000  1
  O  O5  1  0.009179  0.467263  0.500000  1
  O  O6  1  0.497866  0.216650  0.500000  1
  F  F7  1  0.504055  0.958083  0.579328  1
  F  F8  1  0.504055  0.958083  0.420672  1
  F  F9  1  0.495945  0.458083  0.579328  1
  F  F10  1  0.495945  0.458083  0.420672  1
