# generated using pymatgen
data_Mn2ZnO5
_symmetry_space_group_name_H-M   'P 1'
_cell_length_a   3.66794457
_cell_length_b   11.71743795
_cell_length_c   26.43217700
_cell_angle_alpha   90.00000000
_cell_angle_beta   90.00000000
_cell_angle_gamma   90.00000000
_symmetry_Int_Tables_number   1
_chemical_formula_structural   Mn2ZnO5
_chemical_formula_sum   'Mn4 Zn2 O10'
_cell_volume   1136.02623312
_cell_formula_units_Z   2
loop_
 _symmetry_equiv_pos_site_id
 _symmetry_equiv_pos_as_xyz
  1  'x, y, z'
loop_
 _atom_site_type_symbol
 _atom_site_label
 _atom_site_symmetry_multiplicity
 _atom_site_fract_x
 _atom_site_fract_y
 _atom_site_fract_z
 _atom_site_occupancy
  Mn  Mn1  1  0.000000  0.344566  0.511923  1
  Mn  Mn2  1  0.500000  0.155434  0.488077  1
  Mn  Mn3  1  0.500000  0.844566  0.488077  1
  Mn  Mn4  1  -0.000000  0.655434  0.511923  1
  Zn  Zn5  1  0.000000  0.500000  0.588978  1
  Zn  Zn6  1  0.500000  0.000000  0.411022  1
  O  O7  1  0.500000  0.000000  0.499561  1
  O  O8  1  0.000000  0.500000  0.500439  1
  O  O9  1  0.000000  0.821200  0.504210  1
  O  O10  1  0.500000  0.678800  0.495790  1
  O  O11  1  0.500000  0.321200  0.495790  1
  O  O12  1  0.000000  0.178800  0.504210  1
  O  O13  1  0.000000  0.346947  0.580830  1
  O  O14  1  0.500000  0.153053  0.419170  1
  O  O15  1  0.000000  0.653053  0.580830  1
  O  O16  1  0.500000  0.846947  0.419170  1
