# generated using pymatgen
data_CuClO2
_symmetry_space_group_name_H-M   'P 1'
_cell_length_a   3.51861036
_cell_length_b   6.92082161
_cell_length_c   22.72106300
_cell_angle_alpha   90.00000000
_cell_angle_beta   90.00000000
_cell_angle_gamma   90.00000000
_symmetry_Int_Tables_number   1
_chemical_formula_structural   CuClO2
_chemical_formula_sum   'Cu2 Cl2 O4'
_cell_volume   553.29593312
_cell_formula_units_Z   2
loop_
 _symmetry_equiv_pos_site_id
 _symmetry_equiv_pos_as_xyz
  1  'x, y, z'
loop_
 _atom_site_type_symbol
 _atom_site_label
 _atom_site_symmetry_multiplicity
 _atom_site_fract_x
 _atom_site_fract_y
 _atom_site_fract_z
 _atom_site_occupancy
  Cu  Cu1  1  0.500000  0.227665  0.500000  1
  Cu  Cu2  1  -0.000000  0.772335  0.500000  1
  Cl  Cl3  1  0.750000  -0.000000  0.561608  1
  Cl  Cl4  1  0.250000  -0.000000  0.438392  1
  O  O5  1  0.289227  0.592659  0.454937  1
  O  O6  1  0.710773  0.592659  0.545063  1
  O  O7  1  0.210773  0.407341  0.454937  1
  O  O8  1  0.789227  0.407341  0.545063  1
