# generated using pymatgen
data_CaLaI5
_symmetry_space_group_name_H-M   'P 1'
_cell_length_a   4.40584515
_cell_length_b   18.95759048
_cell_length_c   24.54637100
_cell_angle_alpha   90.00000000
_cell_angle_beta   90.00000000
_cell_angle_gamma   90.00000000
_symmetry_Int_Tables_number   1
_chemical_formula_structural   CaLaI5
_chemical_formula_sum   'Ca2 La2 I10'
_cell_volume   2050.21619882
_cell_formula_units_Z   2
loop_
 _symmetry_equiv_pos_site_id
 _symmetry_equiv_pos_as_xyz
  1  'x, y, z'
loop_
 _atom_site_type_symbol
 _atom_site_label
 _atom_site_symmetry_multiplicity
 _atom_site_fract_x
 _atom_site_fract_y
 _atom_site_fract_z
 _atom_site_occupancy
  Ca  Ca1  1  -0.000000  0.750000  0.505632  1
  Ca  Ca2  1  -0.000000  0.250000  0.494368  1
  La  La3  1  0.500000  -0.000000  0.500000  1
  La  La4  1  0.500000  0.500000  0.500000  1
  I  I5  1  0.500000  0.851818  0.439950  1
  I  I6  1  0.500000  0.250000  0.408497  1
  I  I7  1  0.500000  0.648182  0.439950  1
  I  I8  1  -0.000000  0.942693  0.580957  1
  I  I9  1  0.000000  0.557307  0.580957  1
  I  I10  1  -0.000000  0.442693  0.419043  1
  I  I11  1  -0.000000  0.057307  0.419043  1
  I  I12  1  0.500000  0.750000  0.591503  1
  I  I13  1  0.500000  0.351818  0.560050  1
  I  I14  1  0.500000  0.148182  0.560050  1
