# generated using pymatgen
data_LaPb6BrO7
_symmetry_space_group_name_H-M   'P 1'
_cell_length_a   8.17727704
_cell_length_b   9.57664349
_cell_length_c   27.45529528
_cell_angle_alpha   90.00000000
_cell_angle_beta   90.00000000
_cell_angle_gamma   90.00000000
_symmetry_Int_Tables_number   1
_chemical_formula_structural   LaPb6BrO7
_chemical_formula_sum   'La2 Pb12 Br2 O14'
_cell_volume   2150.04797522
_cell_formula_units_Z   2
loop_
 _symmetry_equiv_pos_site_id
 _symmetry_equiv_pos_as_xyz
  1  'x, y, z'
loop_
 _atom_site_type_symbol
 _atom_site_label
 _atom_site_symmetry_multiplicity
 _atom_site_fract_x
 _atom_site_fract_y
 _atom_site_fract_z
 _atom_site_occupancy
  La  La1  1  0.500000  0.000000  0.500000  1
  La  La2  1  0.000000  -0.000000  0.500000  1
  Pb  Pb3  1  0.250000  0.294859  0.560885  1
  Pb  Pb4  1  0.750000  0.294859  0.439115  1
  Pb  Pb5  1  0.750000  0.705141  0.439115  1
  Pb  Pb6  1  0.250000  0.705141  0.560885  1
  Pb  Pb7  1  0.250000  0.754470  0.420481  1
  Pb  Pb8  1  0.984364  0.000000  0.361976  1
  Pb  Pb9  1  0.515636  0.000000  0.361976  1
  Pb  Pb10  1  0.250000  0.245530  0.420481  1
  Pb  Pb11  1  0.484364  -0.000000  0.638024  1
  Pb  Pb12  1  0.750000  0.245530  0.579519  1
  Pb  Pb13  1  0.015636  0.000000  0.638024  1
  Pb  Pb14  1  0.750000  0.754470  0.579519  1
  Br  Br15  1  0.500000  0.500000  0.500000  1
  Br  Br16  1  0.000000  0.500000  0.500000  1
  O  O17  1  0.250000  0.155196  0.494222  1
  O  O18  1  0.470777  0.847526  0.578349  1
  O  O19  1  0.029223  0.847526  0.578349  1
  O  O20  1  0.750000  0.844804  0.505778  1
  O  O21  1  0.470777  0.152474  0.578349  1
  O  O22  1  0.250000  0.000000  0.383273  1
  O  O23  1  0.529223  0.152474  0.421651  1
  O  O24  1  0.750000  0.155196  0.505778  1
  O  O25  1  0.250000  0.844804  0.494222  1
  O  O26  1  0.029223  0.152474  0.578349  1
  O  O27  1  0.970777  0.152474  0.421651  1
  O  O28  1  0.970777  0.847526  0.421651  1
  O  O29  1  0.750000  0.000000  0.616727  1
  O  O30  1  0.529223  0.847526  0.421651  1
