# generated using pymatgen
data_LiSb(PO3)4
_symmetry_space_group_name_H-M   'P 1'
_cell_length_a   6.98342462
_cell_length_b   10.23431667
_cell_length_c   26.63447100
_cell_angle_alpha   90.00000000
_cell_angle_beta   90.00000000
_cell_angle_gamma   99.62275383
_symmetry_Int_Tables_number   1
_chemical_formula_structural   LiSb(PO3)4
_chemical_formula_sum   'Li2 Sb2 P8 O24'
_cell_volume   1876.79716644
_cell_formula_units_Z   2
loop_
 _symmetry_equiv_pos_site_id
 _symmetry_equiv_pos_as_xyz
  1  'x, y, z'
loop_
 _atom_site_type_symbol
 _atom_site_label
 _atom_site_symmetry_multiplicity
 _atom_site_fract_x
 _atom_site_fract_y
 _atom_site_fract_z
 _atom_site_occupancy
  Li  Li1  1  0.500000  0.750000  0.646573  1
  Li  Li2  1  0.500000  0.250000  0.353427  1
  Sb  Sb3  1  -0.000000  0.750000  0.535337  1
  Sb  Sb4  1  -0.000000  0.250000  0.464663  1
  P  P5  1  0.572272  0.996028  0.584404  1
  P  P6  1  0.572272  0.496028  0.415596  1
  P  P7  1  0.712996  0.922225  0.482233  1
  P  P8  1  0.287004  0.577775  0.482233  1
  P  P9  1  0.712996  0.422225  0.517767  1
  P  P10  1  0.287004  0.077775  0.517767  1
  P  P11  1  0.427728  0.503972  0.584404  1
  P  P12  1  0.427728  0.003972  0.415596  1
  O  O13  1  0.442030  0.900167  0.617052  1
  O  O14  1  0.764970  0.564857  0.400796  1
  O  O15  1  0.821701  0.803382  0.481749  1
  O  O16  1  0.442030  0.400167  0.382948  1
  O  O17  1  0.161050  0.944347  0.521924  1
  O  O18  1  0.764971  0.064857  0.599204  1
  O  O19  1  0.412869  0.592014  0.531808  1
  O  O20  1  0.561096  0.897430  0.438334  1
  O  O21  1  0.438905  0.602570  0.438334  1
  O  O22  1  0.587131  0.907986  0.531808  1
  O  O23  1  0.821701  0.303382  0.518251  1
  O  O24  1  0.838951  0.555653  0.521924  1
  O  O25  1  0.161050  0.444347  0.478076  1
  O  O26  1  0.178300  0.696618  0.481749  1
  O  O27  1  0.412870  0.092014  0.468192  1
  O  O28  1  0.561096  0.397430  0.561666  1
  O  O29  1  0.438905  0.102570  0.561666  1
  O  O30  1  0.587131  0.407986  0.468192  1
  O  O31  1  0.235030  0.935143  0.400796  1
  O  O32  1  0.838951  0.055653  0.478076  1
  O  O33  1  0.557970  0.599833  0.617052  1
  O  O34  1  0.178300  0.196618  0.518251  1
  O  O35  1  0.235030  0.435143  0.599204  1
  O  O36  1  0.557970  0.099833  0.382948  1
