# generated using pymatgen
data_NbSe3
_symmetry_space_group_name_H-M   'P 1'
_cell_length_a   3.52195154
_cell_length_b   15.83534393
_cell_length_c   27.98783287
_cell_angle_alpha   90.09268198
_cell_angle_beta   90.00000000
_cell_angle_gamma   90.00000000
_symmetry_Int_Tables_number   1
_chemical_formula_structural   NbSe3
_chemical_formula_sum   'Nb6 Se18'
_cell_volume   1560.91617151
_cell_formula_units_Z   6
loop_
 _symmetry_equiv_pos_site_id
 _symmetry_equiv_pos_as_xyz
  1  'x, y, z'
loop_
 _atom_site_type_symbol
 _atom_site_label
 _atom_site_symmetry_multiplicity
 _atom_site_fract_x
 _atom_site_fract_y
 _atom_site_fract_z
 _atom_site_occupancy
  Nb  Nb1  1  0.250000  0.495182  0.429452  1
  Nb  Nb2  1  0.750000  0.504818  0.570548  1
  Nb  Nb3  1  0.250000  0.246768  0.559815  1
  Nb  Nb4  1  0.750000  0.753232  0.440185  1
  Nb  Nb5  1  0.250000  0.916230  0.553663  1
  Nb  Nb6  1  0.750000  0.083770  0.446337  1
  Se  Se7  1  0.250000  0.629352  0.588650  1
  Se  Se8  1  0.750000  0.370648  0.411350  1
  Se  Se9  1  0.250000  0.418198  0.518507  1
  Se  Se10  1  0.750000  0.581802  0.481493  1
  Se  Se11  1  0.250000  0.510943  0.642802  1
  Se  Se12  1  0.750000  0.489057  0.357198  1
  Se  Se13  1  0.750000  0.920190  0.481876  1
  Se  Se14  1  0.250000  0.079810  0.518124  1
  Se  Se15  1  0.750000  0.988732  0.613590  1
  Se  Se16  1  0.250000  0.011268  0.386410  1
  Se  Se17  1  0.750000  0.829831  0.606265  1
  Se  Se18  1  0.250000  0.170169  0.393735  1
  Se  Se19  1  0.750000  0.161046  0.611325  1
  Se  Se20  1  0.250000  0.838954  0.388675  1
  Se  Se21  1  0.750000  0.344226  0.607313  1
  Se  Se22  1  0.250000  0.655774  0.392687  1
  Se  Se23  1  0.750000  0.243001  0.487996  1
  Se  Se24  1  0.250000  0.756999  0.512004  1
