# generated using pymatgen
data_UTe5
_symmetry_space_group_name_H-M   'P 1'
_cell_length_a   4.22331966
_cell_length_b   10.27664295
_cell_length_c   29.40346328
_cell_angle_alpha   90.00000000
_cell_angle_beta   89.70890968
_cell_angle_gamma   90.00000000
_symmetry_Int_Tables_number   1
_chemical_formula_structural   UTe5
_chemical_formula_sum   'U2 Te10'
_cell_volume   1276.13936054
_cell_formula_units_Z   2
loop_
 _symmetry_equiv_pos_site_id
 _symmetry_equiv_pos_as_xyz
  1  'x, y, z'
loop_
 _atom_site_type_symbol
 _atom_site_label
 _atom_site_symmetry_multiplicity
 _atom_site_fract_x
 _atom_site_fract_y
 _atom_site_fract_z
 _atom_site_occupancy
  U  U1  1  0.391433  0.750000  0.557244  1
  U  U2  1  0.608567  0.250000  0.442756  1
  Te  Te3  1  0.500000  0.500000  0.500000  1
  Te  Te4  1  0.500000  -0.000000  0.500000  1
  Te  Te5  1  0.110499  0.439827  0.397341  1
  Te  Te6  1  0.889501  0.939827  0.602659  1
  Te  Te7  1  0.889501  0.560173  0.602659  1
  Te  Te8  1  0.110499  0.060173  0.397341  1
  Te  Te9  1  0.880415  0.750000  0.477043  1
  Te  Te10  1  0.119585  0.250000  0.522957  1
  Te  Te11  1  0.168538  0.750000  0.660025  1
  Te  Te12  1  0.831462  0.250000  0.339975  1
