# generated using pymatgen
data_Nb(SeCl)2
_symmetry_space_group_name_H-M   'P 1'
_cell_length_a   6.38181893
_cell_length_b   6.57371321
_cell_length_c   24.39112400
_cell_angle_alpha   90.00000000
_cell_angle_beta   90.00000000
_cell_angle_gamma   60.96047008
_symmetry_Int_Tables_number   1
_chemical_formula_structural   Nb(SeCl)2
_chemical_formula_sum   'Nb2 Se4 Cl4'
_cell_volume   894.62304369
_cell_formula_units_Z   2
loop_
 _symmetry_equiv_pos_site_id
 _symmetry_equiv_pos_as_xyz
  1  'x, y, z'
loop_
 _atom_site_type_symbol
 _atom_site_label
 _atom_site_symmetry_multiplicity
 _atom_site_fract_x
 _atom_site_fract_y
 _atom_site_fract_z
 _atom_site_occupancy
  Nb  Nb1  1  0.869957  0.259811  0.500014  1
  Nb  Nb2  1  0.130043  0.740189  0.499986  1
  Se  Se3  1  0.005201  0.999746  0.590283  1
  Se  Se4  1  0.994799  0.000254  0.409717  1
  Se  Se5  1  0.691584  0.999647  0.461279  1
  Se  Se6  1  0.308416  0.000353  0.538721  1
  Cl  Cl7  1  0.901932  0.579153  0.559112  1
  Cl  Cl8  1  0.098068  0.420847  0.440888  1
  Cl  Cl9  1  0.481113  0.421229  0.559171  1
  Cl  Cl10  1  0.518887  0.578771  0.440829  1
