# generated using pymatgen
data_La2Br5
_symmetry_space_group_name_H-M   'P 1'
_cell_length_a   4.19122157
_cell_length_b   15.79634186
_cell_length_c   25.46158800
_cell_angle_alpha   90.00000000
_cell_angle_beta   90.00000000
_cell_angle_gamma   90.00000000
_symmetry_Int_Tables_number   1
_chemical_formula_structural   La2Br5
_chemical_formula_sum   'La4 Br10'
_cell_volume   1685.70909896
_cell_formula_units_Z   2
loop_
 _symmetry_equiv_pos_site_id
 _symmetry_equiv_pos_as_xyz
  1  'x, y, z'
loop_
 _atom_site_type_symbol
 _atom_site_label
 _atom_site_symmetry_multiplicity
 _atom_site_fract_x
 _atom_site_fract_y
 _atom_site_fract_z
 _atom_site_occupancy
  La  La1  1  0.750000  0.842880  0.482464  1
  La  La2  1  0.250000  0.119148  0.517536  1
  La  La3  1  0.750000  0.345511  0.477066  1
  La  La4  1  0.250000  0.616518  0.522934  1
  Br  Br5  1  0.750000  0.606066  0.604248  1
  Br  Br6  1  0.250000  0.355963  0.395752  1
  Br  Br7  1  0.750000  0.996644  0.561772  1
  Br  Br8  1  0.250000  0.965384  0.438228  1
  Br  Br9  1  0.250000  0.422596  0.549933  1
  Br  Br10  1  0.750000  0.539432  0.450067  1
  Br  Br11  1  0.250000  0.736252  0.425204  1
  Br  Br12  1  0.750000  0.225777  0.574796  1
  Br  Br13  1  0.250000  0.799866  0.563899  1
  Br  Br14  1  0.750000  0.162163  0.436101  1
