# generated using pymatgen
data_Au2Se2O7
_symmetry_space_group_name_H-M   'P 1'
_cell_length_a   7.12758601
_cell_length_b   11.37612629
_cell_length_c   22.61281100
_cell_angle_alpha   90.00000000
_cell_angle_beta   90.00000000
_cell_angle_gamma   90.00000000
_symmetry_Int_Tables_number   1
_chemical_formula_structural   Au2Se2O7
_chemical_formula_sum   'Au4 Se4 O14'
_cell_volume   1833.54437140
_cell_formula_units_Z   2
loop_
 _symmetry_equiv_pos_site_id
 _symmetry_equiv_pos_as_xyz
  1  'x, y, z'
loop_
 _atom_site_type_symbol
 _atom_site_label
 _atom_site_symmetry_multiplicity
 _atom_site_fract_x
 _atom_site_fract_y
 _atom_site_fract_z
 _atom_site_occupancy
  Au  Au1  1  0.195113  0.438462  0.514448  1
  Au  Au2  1  0.804887  0.561538  0.514448  1
  Au  Au3  1  0.304887  0.938462  0.514448  1
  Au  Au4  1  0.695113  0.061538  0.514448  1
  Se  Se5  1  0.104949  0.168880  0.467442  1
  Se  Se6  1  0.895051  0.831120  0.467442  1
  Se  Se7  1  0.395051  0.668880  0.467442  1
  Se  Se8  1  0.604949  0.331120  0.467442  1
  O  O9  1  -0.000000  0.500000  0.568467  1
  O  O10  1  0.500000  0.000000  0.568467  1
  O  O11  1  0.381466  0.380195  0.449517  1
  O  O12  1  0.618534  0.619805  0.449517  1
  O  O13  1  0.118534  0.880195  0.449517  1
  O  O14  1  0.881466  0.119805  0.449517  1
  O  O15  1  0.027921  0.295471  0.503898  1
  O  O16  1  0.972079  0.704529  0.503898  1
  O  O17  1  0.843755  0.912852  0.530462  1
  O  O18  1  0.156245  0.087148  0.530462  1
  O  O19  1  0.656245  0.412852  0.530462  1
  O  O20  1  0.343755  0.587148  0.530462  1
  O  O21  1  0.527921  0.204529  0.503898  1
  O  O22  1  0.472079  0.795471  0.503898  1
