# generated using pymatgen
data_Yb(AlGe)2
_symmetry_space_group_name_H-M   'P 1'
_cell_length_a   4.17463903
_cell_length_b   4.17463912
_cell_length_c   25.23721700
_cell_angle_alpha   90.00000000
_cell_angle_beta   90.00000000
_cell_angle_gamma   119.99999920
_symmetry_Int_Tables_number   1
_chemical_formula_structural   Yb(AlGe)2
_chemical_formula_sum   'Yb1 Al2 Ge2'
_cell_volume   380.89911622
_cell_formula_units_Z   1
loop_
 _symmetry_equiv_pos_site_id
 _symmetry_equiv_pos_as_xyz
  1  'x, y, z'
loop_
 _atom_site_type_symbol
 _atom_site_label
 _atom_site_symmetry_multiplicity
 _atom_site_fract_x
 _atom_site_fract_y
 _atom_site_fract_z
 _atom_site_occupancy
  Yb  Yb1  1  0.000000  -0.000000  0.500000  1
  Al  Al2  1  0.666667  0.333333  0.402482  1
  Al  Al3  1  0.333333  0.666667  0.597518  1
  Ge  Ge4  1  0.666667  0.333333  0.577459  1
  Ge  Ge5  1  0.333333  0.666667  0.422541  1
