# generated using pymatgen
data_EuIn2Au
_symmetry_space_group_name_H-M   'P 1'
_cell_length_a   3.55624449
_cell_length_b   4.84636221
_cell_length_c   24.63078700
_cell_angle_alpha   90.00000000
_cell_angle_beta   90.00000000
_cell_angle_gamma   90.45036765
_symmetry_Int_Tables_number   1
_chemical_formula_structural   EuIn2Au
_chemical_formula_sum   'Eu1 In2 Au1'
_cell_volume   424.49477869
_cell_formula_units_Z   1
loop_
 _symmetry_equiv_pos_site_id
 _symmetry_equiv_pos_as_xyz
  1  'x, y, z'
loop_
 _atom_site_type_symbol
 _atom_site_label
 _atom_site_symmetry_multiplicity
 _atom_site_fract_x
 _atom_site_fract_y
 _atom_site_fract_z
 _atom_site_occupancy
  Eu  Eu1  1  0.132483  0.996433  0.499354  1
  In  In2  1  0.676178  0.381948  0.611504  1
  In  In3  1  0.696664  0.390436  0.388816  1
  Au  Au4  1  0.628604  0.499861  0.500327  1
