# generated using pymatgen
data_CuBiSCl2
_symmetry_space_group_name_H-M   'P 1'
_cell_length_a   3.89214550
_cell_length_b   8.63705744
_cell_length_c   25.27192800
_cell_angle_alpha   90.00000000
_cell_angle_beta   90.00000000
_cell_angle_gamma   90.00000000
_symmetry_Int_Tables_number   1
_chemical_formula_structural   CuBiSCl2
_chemical_formula_sum   'Cu2 Bi2 S2 Cl4'
_cell_volume   849.55842392
_cell_formula_units_Z   2
loop_
 _symmetry_equiv_pos_site_id
 _symmetry_equiv_pos_as_xyz
  1  'x, y, z'
loop_
 _atom_site_type_symbol
 _atom_site_label
 _atom_site_symmetry_multiplicity
 _atom_site_fract_x
 _atom_site_fract_y
 _atom_site_fract_z
 _atom_site_occupancy
  Cu  Cu1  1  -0.000000  0.000000  0.500000  1
  Cu  Cu2  1  -0.000000  0.500000  0.500000  1
  Bi  Bi3  1  0.500000  0.750000  0.401328  1
  Bi  Bi4  1  0.500000  0.250000  0.598672  1
  S  S5  1  -0.000000  0.250000  0.527685  1
  S  S6  1  -0.000000  0.750000  0.472315  1
  Cl  Cl7  1  0.500000  0.947163  0.578492  1
  Cl  Cl8  1  0.500000  0.552837  0.578492  1
  Cl  Cl9  1  0.500000  0.052837  0.421508  1
  Cl  Cl10  1  0.500000  0.447163  0.421508  1
