# generated using pymatgen
data_NdTe3
_symmetry_space_group_name_H-M   'P 1'
_cell_length_a   4.39598967
_cell_length_b   4.39877479
_cell_length_c   29.43905900
_cell_angle_alpha   90.00000000
_cell_angle_beta   90.00000000
_cell_angle_gamma   90.00000000
_symmetry_Int_Tables_number   1
_chemical_formula_structural   NdTe3
_chemical_formula_sum   'Nd2 Te6'
_cell_volume   569.26215766
_cell_formula_units_Z   2
loop_
 _symmetry_equiv_pos_site_id
 _symmetry_equiv_pos_as_xyz
  1  'x, y, z'
loop_
 _atom_site_type_symbol
 _atom_site_label
 _atom_site_symmetry_multiplicity
 _atom_site_fract_x
 _atom_site_fract_y
 _atom_site_fract_z
 _atom_site_occupancy
  Nd  Nd1  1  0.422222  0.000000  0.572827  1
  Nd  Nd2  1  0.922222  0.500000  0.427173  1
  Te  Te3  1  0.421263  0.500000  0.339760  1
  Te  Te4  1  0.921263  -0.000000  0.660240  1
  Te  Te5  1  0.922200  0.500000  0.540051  1
  Te  Te6  1  0.422200  -0.000000  0.459949  1
  Te  Te7  1  0.921211  0.000000  0.339778  1
  Te  Te8  1  0.421211  0.500000  0.660222  1
