# generated using pymatgen
data_BaCaI4
_symmetry_space_group_name_H-M   'P 1'
_cell_length_a   4.73049610
_cell_length_b   8.36598287
_cell_length_c   23.79845346
_cell_angle_alpha   90.24227268
_cell_angle_beta   90.00000000
_cell_angle_gamma   90.00000000
_symmetry_Int_Tables_number   1
_chemical_formula_structural   BaCaI4
_chemical_formula_sum   'Ba1 Ca1 I4'
_cell_volume   941.82130911
_cell_formula_units_Z   1
loop_
 _symmetry_equiv_pos_site_id
 _symmetry_equiv_pos_as_xyz
  1  'x, y, z'
loop_
 _atom_site_type_symbol
 _atom_site_label
 _atom_site_symmetry_multiplicity
 _atom_site_fract_x
 _atom_site_fract_y
 _atom_site_fract_z
 _atom_site_occupancy
  Ba  Ba1  1  0.500000  0.000000  0.500000  1
  Ca  Ca2  1  0.000000  0.500000  0.500000  1
  I  I3  1  -0.000000  0.803967  0.577925  1
  I  I4  1  0.500000  0.356103  0.573369  1
  I  I5  1  0.500000  0.643897  0.426631  1
  I  I6  1  0.000000  0.196033  0.422075  1
