# generated using pymatgen
data_ZnGaNO
_symmetry_space_group_name_H-M   'P 1'
_cell_length_a   3.28387848
_cell_length_b   5.30680003
_cell_length_c   23.61696400
_cell_angle_alpha   90.00000000
_cell_angle_beta   90.00000000
_cell_angle_gamma   90.00000000
_symmetry_Int_Tables_number   1
_chemical_formula_structural   ZnGaNO
_chemical_formula_sum   'Zn2 Ga2 N2 O2'
_cell_volume   411.57014912
_cell_formula_units_Z   2
loop_
 _symmetry_equiv_pos_site_id
 _symmetry_equiv_pos_as_xyz
  1  'x, y, z'
loop_
 _atom_site_type_symbol
 _atom_site_label
 _atom_site_symmetry_multiplicity
 _atom_site_fract_x
 _atom_site_fract_y
 _atom_site_fract_z
 _atom_site_occupancy
  Zn  Zn1  1  0.500000  0.490887  0.432935  1
  Zn  Zn2  1  0.500000  0.990887  0.567065  1
  Ga  Ga3  1  -0.000000  0.997438  0.460689  1
  Ga  Ga4  1  -0.000000  0.497438  0.539311  1
  N  N5  1  -0.000000  0.636788  0.460941  1
  N  N6  1  -0.000000  0.136788  0.539059  1
  O  O7  1  0.500000  0.120892  0.427086  1
  O  O8  1  0.500000  0.620892  0.572914  1
