# generated using pymatgen
data_Zn(Mo3O8)2
_symmetry_space_group_name_H-M   'P 1'
_cell_length_a   6.17749468
_cell_length_b   6.17749516
_cell_length_c   26.27356164
_cell_angle_alpha   90.00000000
_cell_angle_beta   90.00000000
_cell_angle_gamma   120.00000815
_symmetry_Int_Tables_number   1
_chemical_formula_structural   Zn(Mo3O8)2
_chemical_formula_sum   'Zn1 Mo6 O16'
_cell_volume   868.30907397
_cell_formula_units_Z   1
loop_
 _symmetry_equiv_pos_site_id
 _symmetry_equiv_pos_as_xyz
  1  'x, y, z'
loop_
 _atom_site_type_symbol
 _atom_site_label
 _atom_site_symmetry_multiplicity
 _atom_site_fract_x
 _atom_site_fract_y
 _atom_site_fract_z
 _atom_site_occupancy
  Zn  Zn1  1  0.666667  0.333333  0.512603  1
  Mo  Mo2  1  0.168909  0.337817  0.587641  1
  Mo  Mo3  1  0.834224  0.165776  0.409639  1
  Mo  Mo4  1  0.662183  0.831091  0.587641  1
  Mo  Mo5  1  0.331551  0.165776  0.409639  1
  Mo  Mo6  1  0.834224  0.668449  0.409639  1
  Mo  Mo7  1  0.168909  0.831091  0.587641  1
  O  O8  1  -0.000000  -0.000000  0.451781  1
  O  O9  1  -0.000000  -0.000000  0.625551  1
  O  O10  1  0.666667  0.333333  0.369487  1
  O  O11  1  0.333333  0.666667  0.544919  1
  O  O12  1  0.525548  0.051095  0.452960  1
  O  O13  1  0.043934  0.521966  0.626248  1
  O  O14  1  0.478034  0.521966  0.626248  1
  O  O15  1  0.525548  0.474452  0.452960  1
  O  O16  1  0.948905  0.474452  0.452960  1
  O  O17  1  0.478034  0.956066  0.626248  1
  O  O18  1  0.315498  0.157749  0.548779  1
  O  O19  1  0.150791  0.849209  0.373288  1
  O  O20  1  0.150791  0.301582  0.373288  1
  O  O21  1  0.698418  0.849209  0.373288  1
  O  O22  1  0.842251  0.157749  0.548779  1
  O  O23  1  0.842251  0.684502  0.548779  1
