# generated using pymatgen
data_VOF3
_symmetry_space_group_name_H-M   'P 1'
_cell_length_a   5.05933620
_cell_length_b   9.38107959
_cell_length_c   24.57382700
_cell_angle_alpha   90.00000000
_cell_angle_beta   90.00000000
_cell_angle_gamma   90.00000000
_symmetry_Int_Tables_number   1
_chemical_formula_structural   VOF3
_chemical_formula_sum   'V4 O4 F12'
_cell_volume   1166.32385104
_cell_formula_units_Z   4
loop_
 _symmetry_equiv_pos_site_id
 _symmetry_equiv_pos_as_xyz
  1  'x, y, z'
loop_
 _atom_site_type_symbol
 _atom_site_label
 _atom_site_symmetry_multiplicity
 _atom_site_fract_x
 _atom_site_fract_y
 _atom_site_fract_z
 _atom_site_occupancy
  V  V1  1  0.914608  0.116762  0.540530  1
  V  V2  1  0.585392  0.616762  0.540530  1
  V  V3  1  0.414608  0.368373  0.459470  1
  V  V4  1  0.085392  0.868373  0.459470  1
  O  O5  1  0.334328  0.936139  0.429368  1
  O  O6  1  0.834328  0.548996  0.570632  1
  O  O7  1  0.165672  0.436139  0.429368  1
  O  O8  1  0.665672  0.048996  0.570632  1
  F  F9  1  0.106636  0.186392  0.593791  1
  F  F10  1  0.893364  0.798743  0.406209  1
  F  F11  1  0.278795  0.204601  0.487351  1
  F  F12  1  0.221205  0.704601  0.487351  1
  F  F13  1  0.141046  0.949945  0.534180  1
  F  F14  1  0.721205  0.780534  0.512649  1
  F  F15  1  0.641046  0.535190  0.465820  1
  F  F16  1  0.358954  0.449945  0.534180  1
  F  F17  1  0.606636  0.298743  0.406209  1
  F  F18  1  0.778795  0.280534  0.512649  1
  F  F19  1  0.858954  0.035190  0.465820  1
  F  F20  1  0.393364  0.686392  0.593791  1
