# generated using pymatgen
data_Y4CI5
_symmetry_space_group_name_H-M   'P 1'
_cell_length_a   3.96695619
_cell_length_b   8.47811567
_cell_length_c   26.26282700
_cell_angle_alpha   90.00000000
_cell_angle_beta   90.00000000
_cell_angle_gamma   90.00000000
_symmetry_Int_Tables_number   1
_chemical_formula_structural   Y4CI5
_chemical_formula_sum   'Y4 C1 I5'
_cell_volume   883.27962940
_cell_formula_units_Z   1
loop_
 _symmetry_equiv_pos_site_id
 _symmetry_equiv_pos_as_xyz
  1  'x, y, z'
loop_
 _atom_site_type_symbol
 _atom_site_label
 _atom_site_symmetry_multiplicity
 _atom_site_fract_x
 _atom_site_fract_y
 _atom_site_fract_z
 _atom_site_occupancy
  Y  Y1  1  0.500000  0.001320  0.409403  1
  Y  Y2  1  -0.000000  0.192652  0.500377  1
  Y  Y3  1  0.500000  0.998680  0.590597  1
  Y  Y4  1  -0.000000  0.807348  0.499623  1
  C  C5  1  0.500000  -0.000000  0.500000  1
  I  I6  1  -0.000000  0.262681  0.382269  1
  I  I7  1  -0.000000  0.740891  0.380952  1
  I  I8  1  -0.000000  0.259109  0.619048  1
  I  I9  1  0.500000  0.500000  0.500000  1
  I  I10  1  0.000000  0.737319  0.617731  1
