# generated using pymatgen
data_SrTa2Bi2O9
_symmetry_space_group_name_H-M   'P 1'
_cell_length_a   5.59490163
_cell_length_b   5.55540587
_cell_length_c   33.49822200
_cell_angle_alpha   90.00000000
_cell_angle_beta   90.00000000
_cell_angle_gamma   90.00000000
_symmetry_Int_Tables_number   1
_chemical_formula_structural   SrTa2Bi2O9
_chemical_formula_sum   'Sr2 Ta4 Bi4 O18'
_cell_volume   1041.19003977
_cell_formula_units_Z   2
loop_
 _symmetry_equiv_pos_site_id
 _symmetry_equiv_pos_as_xyz
  1  'x, y, z'
loop_
 _atom_site_type_symbol
 _atom_site_label
 _atom_site_symmetry_multiplicity
 _atom_site_fract_x
 _atom_site_fract_y
 _atom_site_fract_z
 _atom_site_occupancy
  Sr  Sr1  1  0.753736  0.013228  0.500000  1
  Sr  Sr2  1  0.246264  0.513228  0.500000  1
  Ta  Ta3  1  0.748068  0.513844  0.437444  1
  Ta  Ta4  1  0.748068  0.513844  0.562556  1
  Ta  Ta5  1  0.251932  0.013844  0.437444  1
  Ta  Ta6  1  0.251932  0.013844  0.562556  1
  Bi  Bi7  1  0.720268  0.558974  0.319181  1
  Bi  Bi8  1  0.279732  0.058974  0.680819  1
  Bi  Bi9  1  0.720268  0.558974  0.680819  1
  Bi  Bi10  1  0.279732  0.058974  0.319181  1
  O  O11  1  0.999434  0.264591  0.439611  1
  O  O12  1  0.701945  0.521620  0.619235  1
  O  O13  1  0.631715  0.192974  0.308172  1
  O  O14  1  0.368285  0.692974  0.691828  1
  O  O15  1  0.298055  0.021620  0.380765  1
  O  O16  1  0.499292  0.764379  0.551559  1
  O  O17  1  0.500708  0.264379  0.448441  1
  O  O18  1  0.368284  0.692974  0.308172  1
  O  O19  1  0.215224  0.015908  0.500000  1
  O  O20  1  0.999434  0.264591  0.560389  1
  O  O21  1  0.298055  0.021620  0.619235  1
  O  O22  1  0.000566  0.764591  0.560389  1
  O  O23  1  0.000566  0.764591  0.439611  1
  O  O24  1  0.631715  0.192974  0.691828  1
  O  O25  1  0.784776  0.515908  0.500000  1
  O  O26  1  0.499292  0.764379  0.448441  1
  O  O27  1  0.701945  0.521620  0.380765  1
  O  O28  1  0.500708  0.264379  0.551559  1
