# generated using pymatgen
data_Ba2Mn3Tl2O10
_symmetry_space_group_name_H-M   'P 1'
_cell_length_a   3.76654297
_cell_length_b   3.77137292
_cell_length_c   39.99146900
_cell_angle_alpha   90.00000000
_cell_angle_beta   90.00000000
_cell_angle_gamma   90.02269897
_symmetry_Int_Tables_number   1
_chemical_formula_structural   Ba2Mn3Tl2O10
_chemical_formula_sum   'Ba2 Mn3 Tl2 O10'
_cell_volume   568.08029893
_cell_formula_units_Z   1
loop_
 _symmetry_equiv_pos_site_id
 _symmetry_equiv_pos_as_xyz
  1  'x, y, z'
loop_
 _atom_site_type_symbol
 _atom_site_label
 _atom_site_symmetry_multiplicity
 _atom_site_fract_x
 _atom_site_fract_y
 _atom_site_fract_z
 _atom_site_occupancy
  Ba  Ba1  1  0.208685  0.192730  0.622287  1
  Ba  Ba2  1  0.791180  0.711636  0.377686  1
  Mn  Mn3  1  0.295469  0.210708  0.436472  1
  Mn  Mn4  1  0.715568  0.691752  0.563198  1
  Mn  Mn5  1  0.229837  0.707690  0.499508  1
  Tl  Tl6  1  0.706160  0.698895  0.700133  1
  Tl  Tl7  1  0.272364  0.216741  0.300528  1
  O  O8  1  0.292515  0.710951  0.427155  1
  O  O9  1  0.289725  0.209174  0.351802  1
  O  O10  1  0.791815  0.211558  0.423238  1
  O  O11  1  0.707740  0.723166  0.747134  1
  O  O12  1  0.729877  0.704548  0.514983  1
  O  O13  1  0.214264  0.692032  0.572830  1
  O  O14  1  0.704859  0.692092  0.648722  1
  O  O15  1  0.711206  0.192387  0.576399  1
  O  O16  1  0.244664  0.245143  0.253548  1
  O  O17  1  0.244846  0.207624  0.484377  1
