# generated using pymatgen
data_LaO3
_symmetry_space_group_name_H-M   'P 1'
_cell_length_a   4.62828309
_cell_length_b   7.55209725
_cell_length_c   22.34445000
_cell_angle_alpha   90.00000000
_cell_angle_beta   90.00000000
_cell_angle_gamma   73.35776512
_symmetry_Int_Tables_number   1
_chemical_formula_structural   LaO3
_chemical_formula_sum   'La2 O6'
_cell_volume   748.29580656
_cell_formula_units_Z   2
loop_
 _symmetry_equiv_pos_site_id
 _symmetry_equiv_pos_as_xyz
  1  'x, y, z'
loop_
 _atom_site_type_symbol
 _atom_site_label
 _atom_site_symmetry_multiplicity
 _atom_site_fract_x
 _atom_site_fract_y
 _atom_site_fract_z
 _atom_site_occupancy
  La  La1  1  0.367766  0.266633  0.500014  1
  La  La2  1  0.638348  0.731248  0.499950  1
  O  O3  1  0.503979  0.998788  0.552537  1
  O  O4  1  0.182349  0.631686  0.467453  1
  O  O5  1  0.824115  0.365619  0.467674  1
  O  O6  1  0.823938  0.366151  0.532625  1
  O  O7  1  0.502154  0.998994  0.447347  1
  O  O8  1  0.182080  0.632393  0.532399  1
