# generated using pymatgen
data_Li4TiS4
_symmetry_space_group_name_H-M   'P 1'
_cell_length_a   5.93401389
_cell_length_b   5.93401389
_cell_length_c   24.94154935
_cell_angle_alpha   90.00000000
_cell_angle_beta   90.00000000
_cell_angle_gamma   90.00000000
_symmetry_Int_Tables_number   1
_chemical_formula_structural   Li4TiS4
_chemical_formula_sum   'Li4 Ti1 S4'
_cell_volume   878.25482644
_cell_formula_units_Z   1
loop_
 _symmetry_equiv_pos_site_id
 _symmetry_equiv_pos_as_xyz
  1  'x, y, z'
loop_
 _atom_site_type_symbol
 _atom_site_label
 _atom_site_symmetry_multiplicity
 _atom_site_fract_x
 _atom_site_fract_y
 _atom_site_fract_z
 _atom_site_occupancy
  Li  Li1  1  0.500000  -0.000000  0.500000  1
  Li  Li2  1  0.000000  0.500000  0.500000  1
  Li  Li3  1  0.000000  -0.000000  0.389006  1
  Li  Li4  1  0.000000  -0.000000  0.610994  1
  Ti  Ti5  1  0.000000  -0.000000  0.500000  1
  S  S6  1  0.782332  0.217668  0.553768  1
  S  S7  1  0.217668  0.217668  0.446232  1
  S  S8  1  0.217668  0.782332  0.553768  1
  S  S9  1  0.782332  0.782332  0.446232  1
