# generated using pymatgen
data_TlPt2Se3
_symmetry_space_group_name_H-M   'P 1'
_cell_length_a   7.45484611
_cell_length_b   7.45484574
_cell_length_c   24.18334000
_cell_angle_alpha   90.00000000
_cell_angle_beta   90.00000000
_cell_angle_gamma   120.00000159
_symmetry_Int_Tables_number   1
_chemical_formula_structural   TlPt2Se3
_chemical_formula_sum   'Tl2 Pt4 Se6'
_cell_volume   1163.92300084
_cell_formula_units_Z   2
loop_
 _symmetry_equiv_pos_site_id
 _symmetry_equiv_pos_as_xyz
  1  'x, y, z'
loop_
 _atom_site_type_symbol
 _atom_site_label
 _atom_site_symmetry_multiplicity
 _atom_site_fract_x
 _atom_site_fract_y
 _atom_site_fract_z
 _atom_site_occupancy
  Tl  Tl1  1  0.666667  0.333333  0.413924  1
  Tl  Tl2  1  0.333333  0.666667  0.586076  1
  Pt  Pt3  1  0.000000  0.000000  0.500000  1
  Pt  Pt4  1  0.500000  0.500000  0.500000  1
  Pt  Pt5  1  0.000000  0.500000  0.500000  1
  Pt  Pt6  1  0.500000  0.000000  0.500000  1
  Se  Se7  1  0.830881  0.661761  0.553711  1
  Se  Se8  1  0.830881  0.169119  0.553711  1
  Se  Se9  1  0.338239  0.169119  0.553711  1
  Se  Se10  1  0.661761  0.830881  0.446289  1
  Se  Se11  1  0.169119  0.830881  0.446289  1
  Se  Se12  1  0.169119  0.338239  0.446289  1
