# generated using pymatgen
data_InGeCl3
_symmetry_space_group_name_H-M   'P 1'
_cell_length_a   5.41635974
_cell_length_b   5.41978052
_cell_length_c   22.37620200
_cell_angle_alpha   90.00000000
_cell_angle_beta   90.00000000
_cell_angle_gamma   85.72778125
_symmetry_Int_Tables_number   1
_chemical_formula_structural   InGeCl3
_chemical_formula_sum   'In1 Ge1 Cl3'
_cell_volume   655.03899232
_cell_formula_units_Z   1
loop_
 _symmetry_equiv_pos_site_id
 _symmetry_equiv_pos_as_xyz
  1  'x, y, z'
loop_
 _atom_site_type_symbol
 _atom_site_label
 _atom_site_symmetry_multiplicity
 _atom_site_fract_x
 _atom_site_fract_y
 _atom_site_fract_z
 _atom_site_occupancy
  In  In1  1  0.079878  0.086738  0.449532  1
  Ge  Ge2  1  0.510695  0.513828  0.541047  1
  Cl  Cl3  1  0.960023  0.483327  0.537234  1
  Cl  Cl4  1  0.470777  0.472122  0.435633  1
  Cl  Cl5  1  0.480938  0.961939  0.536553  1
