# generated using pymatgen
data_MgTi4O9
_symmetry_space_group_name_H-M   'P 1'
_cell_length_a   8.50069191
_cell_length_b   8.50069191
_cell_length_c   26.16549900
_cell_angle_alpha   90.00000000
_cell_angle_beta   90.00000000
_cell_angle_gamma   90.00000000
_symmetry_Int_Tables_number   1
_chemical_formula_structural   MgTi4O9
_chemical_formula_sum   'Mg2 Ti8 O18'
_cell_volume   1890.76508617
_cell_formula_units_Z   2
loop_
 _symmetry_equiv_pos_site_id
 _symmetry_equiv_pos_as_xyz
  1  'x, y, z'
loop_
 _atom_site_type_symbol
 _atom_site_label
 _atom_site_symmetry_multiplicity
 _atom_site_fract_x
 _atom_site_fract_y
 _atom_site_fract_z
 _atom_site_occupancy
  Mg  Mg1  1  -0.000000  0.500000  0.399517  1
  Mg  Mg2  1  0.500000  0.000000  0.600483  1
  Ti  Ti3  1  0.911424  0.221015  0.477475  1
  Ti  Ti4  1  0.778985  0.911424  0.522525  1
  Ti  Ti5  1  0.278985  0.411424  0.477475  1
  Ti  Ti6  1  0.411424  0.721015  0.522525  1
  Ti  Ti7  1  0.088576  0.778985  0.477475  1
  Ti  Ti8  1  0.721015  0.588576  0.477475  1
  Ti  Ti9  1  0.588576  0.278985  0.522525  1
  Ti  Ti10  1  0.221015  0.088576  0.522525  1
  O  O11  1  -0.000000  0.000000  0.500000  1
  O  O12  1  0.500000  0.500000  0.500000  1
  O  O13  1  0.275114  0.068492  0.584934  1
  O  O14  1  0.568492  0.224886  0.584934  1
  O  O15  1  0.431508  0.775114  0.584934  1
  O  O16  1  0.724886  0.931508  0.584934  1
  O  O17  1  0.224886  0.431508  0.415066  1
  O  O18  1  0.931508  0.275114  0.415066  1
  O  O19  1  0.068492  0.724886  0.415066  1
  O  O20  1  0.775114  0.568492  0.415066  1
  O  O21  1  0.892000  0.711111  0.506836  1
  O  O22  1  0.211111  0.608000  0.506836  1
  O  O23  1  0.788889  0.392000  0.506836  1
  O  O24  1  0.108000  0.288889  0.506836  1
  O  O25  1  0.392000  0.211111  0.493164  1
  O  O26  1  0.288889  0.892000  0.493164  1
  O  O27  1  0.711111  0.108000  0.493164  1
  O  O28  1  0.608000  0.788889  0.493164  1
