# generated using pymatgen
data_TlPd2Se3
_symmetry_space_group_name_H-M   'P 1'
_cell_length_a   7.34879902
_cell_length_b   7.34879872
_cell_length_c   24.71473241
_cell_angle_alpha   90.00000000
_cell_angle_beta   90.00000000
_cell_angle_gamma   120.00000136
_symmetry_Int_Tables_number   1
_chemical_formula_structural   TlPd2Se3
_chemical_formula_sum   'Tl2 Pd4 Se6'
_cell_volume   1155.89733084
_cell_formula_units_Z   2
loop_
 _symmetry_equiv_pos_site_id
 _symmetry_equiv_pos_as_xyz
  1  'x, y, z'
loop_
 _atom_site_type_symbol
 _atom_site_label
 _atom_site_symmetry_multiplicity
 _atom_site_fract_x
 _atom_site_fract_y
 _atom_site_fract_z
 _atom_site_occupancy
  Tl  Tl1  1  0.333333  0.666667  0.586989  1
  Tl  Tl2  1  0.666667  0.333333  0.413011  1
  Pd  Pd3  1  0.000000  0.000000  0.500000  1
  Pd  Pd4  1  0.000000  0.500000  0.500000  1
  Pd  Pd5  1  0.500000  0.500000  0.500000  1
  Pd  Pd6  1  0.500000  0.000000  0.500000  1
  Se  Se7  1  0.168755  0.337509  0.445948  1
  Se  Se8  1  0.168755  0.831245  0.445948  1
  Se  Se9  1  0.662491  0.831245  0.445948  1
  Se  Se10  1  0.337509  0.168755  0.554052  1
  Se  Se11  1  0.831245  0.662491  0.554052  1
  Se  Se12  1  0.831245  0.168755  0.554052  1
