# generated using pymatgen
data_Fe3OF7
_symmetry_space_group_name_H-M   'P 1'
_cell_length_a   6.11496872
_cell_length_b   6.11496877
_cell_length_c   22.04562800
_cell_angle_alpha   90.00000000
_cell_angle_beta   90.00000000
_cell_angle_gamma   60.00000026
_symmetry_Int_Tables_number   1
_chemical_formula_structural   Fe3OF7
_chemical_formula_sum   'Fe3 O1 F7'
_cell_volume   713.90691839
_cell_formula_units_Z   1
loop_
 _symmetry_equiv_pos_site_id
 _symmetry_equiv_pos_as_xyz
  1  'x, y, z'
loop_
 _atom_site_type_symbol
 _atom_site_label
 _atom_site_symmetry_multiplicity
 _atom_site_fract_x
 _atom_site_fract_y
 _atom_site_fract_z
 _atom_site_occupancy
  Fe  Fe1  1  0.172952  0.172952  0.497663  1
  Fe  Fe2  1  0.172952  0.654097  0.497663  1
  Fe  Fe3  1  0.654097  0.172952  0.497663  1
  O  O4  1  0.333333  0.333333  0.454182  1
  F  F5  1  -0.000000  0.000000  0.546874  1
  F  F6  1  0.848858  0.848858  0.455800  1
  F  F7  1  0.848858  0.302283  0.455800  1
  F  F8  1  0.027695  0.486153  0.546185  1
  F  F9  1  0.302283  0.848858  0.455800  1
  F  F10  1  0.486153  0.027695  0.546185  1
  F  F11  1  0.486153  0.486153  0.546185  1
