# generated using pymatgen
data_BaZnF4
_symmetry_space_group_name_H-M   'P 1'
_cell_length_a   4.13146036
_cell_length_b   5.91436415
_cell_length_c   26.52645300
_cell_angle_alpha   90.00000000
_cell_angle_beta   90.00000000
_cell_angle_gamma   90.00000000
_symmetry_Int_Tables_number   1
_chemical_formula_structural   BaZnF4
_chemical_formula_sum   'Ba2 Zn2 F8'
_cell_volume   648.17284559
_cell_formula_units_Z   2
loop_
 _symmetry_equiv_pos_site_id
 _symmetry_equiv_pos_as_xyz
  1  'x, y, z'
loop_
 _atom_site_type_symbol
 _atom_site_label
 _atom_site_symmetry_multiplicity
 _atom_site_fract_x
 _atom_site_fract_y
 _atom_site_fract_z
 _atom_site_occupancy
  Ba  Ba1  1  0.000000  0.963462  0.439635  1
  Ba  Ba2  1  0.500000  0.463462  0.560365  1
  Zn  Zn3  1  0.500000  0.520870  0.410085  1
  Zn  Zn4  1  -0.000000  0.020870  0.589915  1
  F  F5  1  0.000000  0.486366  0.402808  1
  F  F6  1  0.500000  0.986366  0.597192  1
  F  F7  1  0.500000  0.817396  0.378759  1
  F  F8  1  0.000000  0.317396  0.621241  1
  F  F9  1  0.000000  0.204879  0.524102  1
  F  F10  1  0.500000  0.704879  0.475898  1
  F  F11  1  0.000000  0.735508  0.554560  1
  F  F12  1  0.500000  0.235508  0.445440  1
