# generated using pymatgen
data_LiAgF2
_symmetry_space_group_name_H-M   'P 1'
_cell_length_a   2.92420774
_cell_length_b   6.32742206
_cell_length_c   24.44588800
_cell_angle_alpha   90.00000000
_cell_angle_beta   90.00000000
_cell_angle_gamma   90.00000000
_symmetry_Int_Tables_number   1
_chemical_formula_structural   LiAgF2
_chemical_formula_sum   'Li2 Ag2 F4'
_cell_volume   452.31484786
_cell_formula_units_Z   2
loop_
 _symmetry_equiv_pos_site_id
 _symmetry_equiv_pos_as_xyz
  1  'x, y, z'
loop_
 _atom_site_type_symbol
 _atom_site_label
 _atom_site_symmetry_multiplicity
 _atom_site_fract_x
 _atom_site_fract_y
 _atom_site_fract_z
 _atom_site_occupancy
  Li  Li1  1  0.298005  0.947474  0.549108  1
  Li  Li2  1  0.798005  0.052526  0.450892  1
  Ag  Ag3  1  0.298965  0.523294  0.446960  1
  Ag  Ag4  1  0.798965  0.476706  0.553040  1
  F  F5  1  0.297041  0.843499  0.470803  1
  F  F6  1  0.799616  0.787493  0.580019  1
  F  F7  1  0.299616  0.212507  0.419981  1
  F  F8  1  0.797041  0.156501  0.529197  1
