# generated using pymatgen
data_CaGeO3
_symmetry_space_group_name_H-M   'P 1'
_cell_length_a   7.14297271
_cell_length_b   7.81881236
_cell_length_c   29.24222900
_cell_angle_alpha   90.00000000
_cell_angle_beta   90.00000000
_cell_angle_gamma   91.05943816
_symmetry_Int_Tables_number   1
_chemical_formula_structural   CaGeO3
_chemical_formula_sum   'Ca6 Ge6 O18'
_cell_volume   1632.88653389
_cell_formula_units_Z   6
loop_
 _symmetry_equiv_pos_site_id
 _symmetry_equiv_pos_as_xyz
  1  'x, y, z'
loop_
 _atom_site_type_symbol
 _atom_site_label
 _atom_site_symmetry_multiplicity
 _atom_site_fract_x
 _atom_site_fract_y
 _atom_site_fract_z
 _atom_site_occupancy
  Ca  Ca1  1  0.530000  0.870427  0.368253  1
  Ca  Ca2  1  0.470000  0.129573  0.631747  1
  Ca  Ca3  1  0.741174  0.353970  0.545485  1
  Ca  Ca4  1  0.258826  0.646030  0.454515  1
  Ca  Ca5  1  0.717606  0.888039  0.547684  1
  Ca  Ca6  1  0.282394  0.111961  0.452316  1
  Ge  Ge7  1  0.734656  0.599712  0.453935  1
  Ge  Ge8  1  0.265344  0.400288  0.546065  1
  Ge  Ge9  1  0.748113  0.169429  0.444595  1
  Ge  Ge10  1  0.251887  0.830571  0.555405  1
  Ge  Ge11  1  0.984293  0.878448  0.393047  1
  Ge  Ge12  1  0.015707  0.121552  0.606953  1
  O  O13  1  0.176146  0.611529  0.552699  1
  O  O14  1  0.823854  0.388471  0.447301  1
  O  O15  1  0.298436  0.885264  0.498222  1
  O  O16  1  0.701564  0.114736  0.501778  1
  O  O17  1  0.300311  0.375286  0.486685  1
  O  O18  1  0.699689  0.624714  0.513315  1
  O  O19  1  0.055046  0.282212  0.561582  1
  O  O20  1  0.944954  0.717788  0.438418  1
  O  O21  1  0.454390  0.342848  0.580146  1
  O  O22  1  0.545610  0.657152  0.419854  1
  O  O23  1  0.033594  0.920587  0.574418  1
  O  O24  1  0.966406  0.079413  0.425582  1
  O  O25  1  0.229509  0.867083  0.392076  1
  O  O26  1  0.770491  0.132917  0.607924  1
  O  O27  1  0.829250  0.861725  0.348806  1
  O  O28  1  0.170750  0.138275  0.651194  1
  O  O29  1  0.555881  0.111652  0.410371  1
  O  O30  1  0.444119  0.888348  0.589629  1
