# generated using pymatgen
data_AgBi(PSe3)2
_symmetry_space_group_name_H-M   'P 1'
_cell_length_a   6.70528234
_cell_length_b   6.70528304
_cell_length_c   23.69358326
_cell_angle_alpha   90.00000000
_cell_angle_beta   90.00000000
_cell_angle_gamma   59.99999850
_symmetry_Int_Tables_number   1
_chemical_formula_structural   AgBi(PSe3)2
_chemical_formula_sum   'Ag1 Bi1 P2 Se6'
_cell_volume   922.56198373
_cell_formula_units_Z   1
loop_
 _symmetry_equiv_pos_site_id
 _symmetry_equiv_pos_as_xyz
  1  'x, y, z'
loop_
 _atom_site_type_symbol
 _atom_site_label
 _atom_site_symmetry_multiplicity
 _atom_site_fract_x
 _atom_site_fract_y
 _atom_site_fract_z
 _atom_site_occupancy
  Ag  Ag1  1  0.666667  0.666667  0.482612  1
  Bi  Bi2  1  -0.000000  0.000000  0.508861  1
  P  P3  1  0.333333  0.333333  0.551287  1
  P  P4  1  0.333333  0.333333  0.453980  1
  Se  Se5  1  0.658374  0.031056  0.424186  1
  Se  Se6  1  0.310570  0.658374  0.424186  1
  Se  Se7  1  0.031056  0.310570  0.424186  1
  Se  Se8  1  0.997135  0.626828  0.576900  1
  Se  Se9  1  0.376036  0.997135  0.576900  1
  Se  Se10  1  0.626828  0.376036  0.576900  1
