# generated using pymatgen
data_Tm(CuS)2
_symmetry_space_group_name_H-M   'P 1'
_cell_length_a   3.87376820
_cell_length_b   3.87175741
_cell_length_c   24.20113500
_cell_angle_alpha   90.00000000
_cell_angle_beta   90.00000000
_cell_angle_gamma   120.01718137
_symmetry_Int_Tables_number   1
_chemical_formula_structural   Tm(CuS)2
_chemical_formula_sum   'Tm1 Cu2 S2'
_cell_volume   314.29170443
_cell_formula_units_Z   1
loop_
 _symmetry_equiv_pos_site_id
 _symmetry_equiv_pos_as_xyz
  1  'x, y, z'
loop_
 _atom_site_type_symbol
 _atom_site_label
 _atom_site_symmetry_multiplicity
 _atom_site_fract_x
 _atom_site_fract_y
 _atom_site_fract_z
 _atom_site_occupancy
  Tm  Tm1  1  0.000000  0.000000  0.500000  1
  Cu  Cu2  1  0.333389  0.666777  0.577703  1
  Cu  Cu3  1  0.666611  0.333223  0.422297  1
  S  S4  1  0.333379  0.666759  0.425349  1
  S  S5  1  0.666621  0.333241  0.574651  1
