# generated using pymatgen
data_Al2FeS4
_symmetry_space_group_name_H-M   'P 1'
_cell_length_a   3.62254146
_cell_length_b   3.62254258
_cell_length_c   28.67603055
_cell_angle_alpha   90.00000000
_cell_angle_beta   90.00000000
_cell_angle_gamma   60.00000105
_symmetry_Int_Tables_number   1
_chemical_formula_structural   Al2FeS4
_chemical_formula_sum   'Al2 Fe1 S4'
_cell_volume   325.89412681
_cell_formula_units_Z   1
loop_
 _symmetry_equiv_pos_site_id
 _symmetry_equiv_pos_as_xyz
  1  'x, y, z'
loop_
 _atom_site_type_symbol
 _atom_site_label
 _atom_site_symmetry_multiplicity
 _atom_site_fract_x
 _atom_site_fract_y
 _atom_site_fract_z
 _atom_site_occupancy
  Al  Al1  1  0.333333  0.333333  0.622486  1
  Al  Al2  1  0.666667  0.666667  0.377515  1
  Fe  Fe3  1  0.000000  -0.000000  0.499996  1
  S  S4  1  0.000000  -0.000000  0.342532  1
  S  S5  1  0.000000  -0.000000  0.657471  1
  S  S6  1  0.666667  0.666667  0.453630  1
  S  S7  1  0.333333  0.333333  0.546369  1
