# generated using pymatgen
data_Pb3SeO5
_symmetry_space_group_name_H-M   'P 1'
_cell_length_a   5.74709058
_cell_length_b   10.69166371
_cell_length_c   25.06792163
_cell_angle_alpha   90.00000000
_cell_angle_beta   90.00000000
_cell_angle_gamma   90.00000000
_symmetry_Int_Tables_number   1
_chemical_formula_structural   Pb3SeO5
_chemical_formula_sum   'Pb6 Se2 O10'
_cell_volume   1540.32250455
_cell_formula_units_Z   2
loop_
 _symmetry_equiv_pos_site_id
 _symmetry_equiv_pos_as_xyz
  1  'x, y, z'
loop_
 _atom_site_type_symbol
 _atom_site_label
 _atom_site_symmetry_multiplicity
 _atom_site_fract_x
 _atom_site_fract_y
 _atom_site_fract_z
 _atom_site_occupancy
  Pb  Pb1  1  0.163100  0.500000  0.451678  1
  Pb  Pb2  1  0.663100  0.500000  0.548322  1
  Pb  Pb3  1  0.139493  0.239102  0.549184  1
  Pb  Pb4  1  0.639493  0.760898  0.450816  1
  Pb  Pb5  1  0.139493  0.760898  0.549184  1
  Pb  Pb6  1  0.639493  0.239102  0.450816  1
  Se  Se7  1  0.186096  0.000000  0.436190  1
  Se  Se8  1  0.686096  0.000000  0.563810  1
  O  O9  1  0.915571  0.368599  0.499153  1
  O  O10  1  0.415571  0.631401  0.500847  1
  O  O11  1  0.915571  0.631401  0.499153  1
  O  O12  1  0.415571  0.368599  0.500847  1
  O  O13  1  0.401029  0.000000  0.392004  1
  O  O14  1  0.901029  0.000000  0.607996  1
  O  O15  1  0.271325  0.871993  0.476530  1
  O  O16  1  0.771325  0.128007  0.523470  1
  O  O17  1  0.271325  0.128007  0.476530  1
  O  O18  1  0.771325  0.871993  0.523470  1
