# generated using pymatgen
data_UI3
_symmetry_space_group_name_H-M   'P 1'
_cell_length_a   4.16430894
_cell_length_b   9.96621706
_cell_length_c   24.95120800
_cell_angle_alpha   90.00000000
_cell_angle_beta   90.00000000
_cell_angle_gamma   90.00000000
_symmetry_Int_Tables_number   1
_chemical_formula_structural   UI3
_chemical_formula_sum   'U2 I6'
_cell_volume   1035.53518459
_cell_formula_units_Z   2
loop_
 _symmetry_equiv_pos_site_id
 _symmetry_equiv_pos_as_xyz
  1  'x, y, z'
loop_
 _atom_site_type_symbol
 _atom_site_label
 _atom_site_symmetry_multiplicity
 _atom_site_fract_x
 _atom_site_fract_y
 _atom_site_fract_z
 _atom_site_occupancy
  U  U1  1  0.500000  0.000000  0.507379  1
  U  U2  1  0.000000  0.500000  0.492621  1
  I  I3  1  0.000000  0.183749  0.440331  1
  I  I4  1  0.500000  0.316251  0.559669  1
  I  I5  1  0.500000  0.500000  0.400041  1
  I  I6  1  0.000000  0.000000  0.599959  1
  I  I7  1  0.000000  0.816251  0.440331  1
  I  I8  1  0.500000  0.683749  0.559669  1
