# generated using pymatgen
data_Ni(HO)2
_symmetry_space_group_name_H-M   'P 1'
_cell_length_a   3.37976276
_cell_length_b   3.37976278
_cell_length_c   22.49539285
_cell_angle_alpha   90.00000000
_cell_angle_beta   90.00000000
_cell_angle_gamma   119.99999982
_symmetry_Int_Tables_number   1
_chemical_formula_structural   Ni(HO)2
_chemical_formula_sum   'Ni1 H2 O2'
_cell_volume   222.53414096
_cell_formula_units_Z   1
loop_
 _symmetry_equiv_pos_site_id
 _symmetry_equiv_pos_as_xyz
  1  'x, y, z'
loop_
 _atom_site_type_symbol
 _atom_site_label
 _atom_site_symmetry_multiplicity
 _atom_site_fract_x
 _atom_site_fract_y
 _atom_site_fract_z
 _atom_site_occupancy
  Ni  Ni1  1  0.000000  -0.000000  0.525689  1
  H  H2  1  0.666667  0.333333  0.510958  1
  H  H3  1  0.333333  0.666667  0.432531  1
  O  O4  1  0.666667  0.333333  0.554971  1
  O  O5  1  0.333333  0.666667  0.475848  1
