# generated using pymatgen
data_Np(OF)2
_symmetry_space_group_name_H-M   'P 1'
_cell_length_a   3.73957630
_cell_length_b   4.35358330
_cell_length_c   23.24661123
_cell_angle_alpha   90.00000000
_cell_angle_beta   90.52644667
_cell_angle_gamma   90.00000000
_symmetry_Int_Tables_number   1
_chemical_formula_structural   Np(OF)2
_chemical_formula_sum   'Np1 O2 F2'
_cell_volume   378.45180233
_cell_formula_units_Z   1
loop_
 _symmetry_equiv_pos_site_id
 _symmetry_equiv_pos_as_xyz
  1  'x, y, z'
loop_
 _atom_site_type_symbol
 _atom_site_label
 _atom_site_symmetry_multiplicity
 _atom_site_fract_x
 _atom_site_fract_y
 _atom_site_fract_z
 _atom_site_occupancy
  Np  Np1  1  0.500000  0.000000  0.500000  1
  O  O2  1  0.381803  0.500000  0.474041  1
  O  O3  1  0.618197  0.500000  0.525959  1
  F  F4  1  0.025339  -0.000000  0.557623  1
  F  F5  1  0.974661  -0.000000  0.442377  1
