# generated using pymatgen
data_In3Te4
_symmetry_space_group_name_H-M   'P 1'
_cell_length_a   4.32067848
_cell_length_b   4.32067841
_cell_length_c   30.64844340
_cell_angle_alpha   90.00000000
_cell_angle_beta   90.00000000
_cell_angle_gamma   59.99999950
_symmetry_Int_Tables_number   1
_chemical_formula_structural   In3Te4
_chemical_formula_sum   'In3 Te4'
_cell_volume   495.49918522
_cell_formula_units_Z   1
loop_
 _symmetry_equiv_pos_site_id
 _symmetry_equiv_pos_as_xyz
  1  'x, y, z'
loop_
 _atom_site_type_symbol
 _atom_site_label
 _atom_site_symmetry_multiplicity
 _atom_site_fract_x
 _atom_site_fract_y
 _atom_site_fract_z
 _atom_site_occupancy
  In  In1  1  0.000000  0.000000  0.500000  1
  In  In2  1  0.333333  0.333333  0.373874  1
  In  In3  1  0.666667  0.666667  0.626126  1
  Te  Te4  1  -0.000000  0.000000  0.325736  1
  Te  Te5  1  0.000000  -0.000000  0.674264  1
  Te  Te6  1  0.333333  0.333333  0.557922  1
  Te  Te7  1  0.666667  0.666667  0.442078  1
