# generated using pymatgen
data_CaSnS3
_symmetry_space_group_name_H-M   'P 1'
_cell_length_a   4.19282637
_cell_length_b   7.26463902
_cell_length_c   21.74581000
_cell_angle_alpha   90.00000000
_cell_angle_beta   90.00000000
_cell_angle_gamma   90.00000000
_symmetry_Int_Tables_number   1
_chemical_formula_structural   CaSnS3
_chemical_formula_sum   'Ca1 Sn1 S3'
_cell_volume   662.36367386
_cell_formula_units_Z   1
loop_
 _symmetry_equiv_pos_site_id
 _symmetry_equiv_pos_as_xyz
  1  'x, y, z'
loop_
 _atom_site_type_symbol
 _atom_site_label
 _atom_site_symmetry_multiplicity
 _atom_site_fract_x
 _atom_site_fract_y
 _atom_site_fract_z
 _atom_site_occupancy
  Ca  Ca1  1  -0.000000  0.500000  0.482395  1
  Sn  Sn2  1  0.500000  0.000000  0.536642  1
  S  S3  1  0.500000  0.500000  0.564487  1
  S  S4  1  0.500000  0.754024  0.458237  1
  S  S5  1  0.500000  0.245976  0.458237  1
