# generated using pymatgen
data_Ba2Fe3O8
_symmetry_space_group_name_H-M   'P 1'
_cell_length_a   3.88949415
_cell_length_b   3.88949455
_cell_length_c   28.40856500
_cell_angle_alpha   90.00000000
_cell_angle_beta   90.00000000
_cell_angle_gamma   90.09446034
_symmetry_Int_Tables_number   1
_chemical_formula_structural   Ba2Fe3O8
_chemical_formula_sum   'Ba2 Fe3 O8'
_cell_volume   429.76891141
_cell_formula_units_Z   1
loop_
 _symmetry_equiv_pos_site_id
 _symmetry_equiv_pos_as_xyz
  1  'x, y, z'
loop_
 _atom_site_type_symbol
 _atom_site_label
 _atom_site_symmetry_multiplicity
 _atom_site_fract_x
 _atom_site_fract_y
 _atom_site_fract_z
 _atom_site_occupancy
  Ba  Ba1  1  0.500000  0.500000  0.573815  1
  Ba  Ba2  1  0.500000  0.500000  0.426164  1
  Fe  Fe3  1  0.000000  0.000000  0.643535  1
  Fe  Fe4  1  0.000000  -0.000000  0.500004  1
  Fe  Fe5  1  -0.000000  -0.000000  0.356468  1
  O  O6  1  0.500000  0.000000  0.647770  1
  O  O7  1  -0.000000  0.500000  0.647770  1
  O  O8  1  0.000000  0.500000  0.500004  1
  O  O9  1  0.000000  -0.000000  0.572271  1
  O  O10  1  0.500000  -0.000000  0.352233  1
  O  O11  1  -0.000000  0.500000  0.352233  1
  O  O12  1  0.000000  -0.000000  0.427726  1
  O  O13  1  0.500000  -0.000000  0.500004  1
