# generated using pymatgen
data_Al2Zn2S5
_symmetry_space_group_name_H-M   'P 1'
_cell_length_a   3.69660453
_cell_length_b   3.69660433
_cell_length_c   32.16713700
_cell_angle_alpha   90.00000000
_cell_angle_beta   90.00000000
_cell_angle_gamma   60.00000703
_symmetry_Int_Tables_number   1
_chemical_formula_structural   Al2Zn2S5
_chemical_formula_sum   'Al2 Zn2 S5'
_cell_volume   380.67033113
_cell_formula_units_Z   1
loop_
 _symmetry_equiv_pos_site_id
 _symmetry_equiv_pos_as_xyz
  1  'x, y, z'
loop_
 _atom_site_type_symbol
 _atom_site_label
 _atom_site_symmetry_multiplicity
 _atom_site_fract_x
 _atom_site_fract_y
 _atom_site_fract_z
 _atom_site_occupancy
  Al  Al1  1  0.000000  0.000000  0.448464  1
  Al  Al2  1  0.333333  0.333333  0.661939  1
  Zn  Zn3  1  0.333333  0.333333  0.333088  1
  Zn  Zn4  1  0.666667  0.666667  0.560227  1
  S  S5  1  -0.000000  0.000000  0.310120  1
  S  S6  1  0.666667  0.666667  0.491149  1
  S  S7  1  0.666667  0.666667  0.689464  1
  S  S8  1  0.333333  0.333333  0.413105  1
  S  S9  1  0.333333  0.333333  0.592444  1
