# generated using pymatgen
data_Al2O3
_symmetry_space_group_name_H-M   'P 1'
_cell_length_a   4.98862946
_cell_length_b   4.98862969
_cell_length_c   24.18447100
_cell_angle_alpha   90.00000000
_cell_angle_beta   90.00000000
_cell_angle_gamma   119.99999846
_symmetry_Int_Tables_number   1
_chemical_formula_structural   Al2O3
_chemical_formula_sum   'Al6 O9'
_cell_volume   521.23040920
_cell_formula_units_Z   3
loop_
 _symmetry_equiv_pos_site_id
 _symmetry_equiv_pos_as_xyz
  1  'x, y, z'
loop_
 _atom_site_type_symbol
 _atom_site_label
 _atom_site_symmetry_multiplicity
 _atom_site_fract_x
 _atom_site_fract_y
 _atom_site_fract_z
 _atom_site_occupancy
  Al  Al1  1  0.666667  0.333333  0.428520  1
  Al  Al2  1  -0.000000  0.000000  0.444225  1
  Al  Al3  1  0.333333  0.666667  0.450388  1
  Al  Al4  1  0.666667  0.333333  0.549612  1
  Al  Al5  1  -0.000000  0.000000  0.555775  1
  Al  Al6  1  0.333333  0.666667  0.571480  1
  O  O7  1  0.661665  0.674426  0.413879  1
  O  O8  1  0.012761  0.338335  0.413879  1
  O  O9  1  0.325574  0.987239  0.413879  1
  O  O10  1  0.674498  0.000000  0.500000  1
  O  O11  1  0.325502  0.325502  0.500000  1
  O  O12  1  0.000000  0.674498  0.500000  1
  O  O13  1  0.987239  0.325574  0.586121  1
  O  O14  1  0.338335  0.012761  0.586121  1
  O  O15  1  0.674426  0.661665  0.586121  1
