# generated using pymatgen
data_DyTe3
_symmetry_space_group_name_H-M   'P 1'
_cell_length_a   4.05448118
_cell_length_b   4.58017822
_cell_length_c   30.58553800
_cell_angle_alpha   90.00000000
_cell_angle_beta   90.00000000
_cell_angle_gamma   90.00000000
_symmetry_Int_Tables_number   1
_chemical_formula_structural   DyTe3
_chemical_formula_sum   'Dy2 Te6'
_cell_volume   567.98097675
_cell_formula_units_Z   2
loop_
 _symmetry_equiv_pos_site_id
 _symmetry_equiv_pos_as_xyz
  1  'x, y, z'
loop_
 _atom_site_type_symbol
 _atom_site_label
 _atom_site_symmetry_multiplicity
 _atom_site_fract_x
 _atom_site_fract_y
 _atom_site_fract_z
 _atom_site_occupancy
  Dy  Dy1  1  -0.000000  0.250000  0.547781  1
  Dy  Dy2  1  -0.000000  0.750000  0.452219  1
  Te  Te3  1  0.000000  0.250000  0.651444  1
  Te  Te4  1  0.000000  0.750000  0.348556  1
  Te  Te5  1  0.500000  0.250000  0.327613  1
  Te  Te6  1  0.500000  0.750000  0.672387  1
  Te  Te7  1  0.500000  0.250000  0.451729  1
  Te  Te8  1  0.500000  0.750000  0.548271  1
