# generated using pymatgen
data_MgBiPO6
_symmetry_space_group_name_H-M   'P 1'
_cell_length_a   5.21879000
_cell_length_b   7.46687998
_cell_length_c   24.85547000
_cell_angle_alpha   90.00000000
_cell_angle_beta   90.00000000
_cell_angle_gamma   90.00000000
_symmetry_Int_Tables_number   1
_chemical_formula_structural   MgBiPO6
_chemical_formula_sum   'Mg2 Bi2 P2 O12'
_cell_volume   968.56990787
_cell_formula_units_Z   2
loop_
 _symmetry_equiv_pos_site_id
 _symmetry_equiv_pos_as_xyz
  1  'x, y, z'
loop_
 _atom_site_type_symbol
 _atom_site_label
 _atom_site_symmetry_multiplicity
 _atom_site_fract_x
 _atom_site_fract_y
 _atom_site_fract_z
 _atom_site_occupancy
  Mg  Mg1  1  0.250000  0.660031  0.442961  1
  Mg  Mg2  1  0.750000  0.339969  0.557039  1
  Bi  Bi3  1  0.750000  0.873841  0.532574  1
  Bi  Bi4  1  0.250000  0.126159  0.467426  1
  P  P5  1  0.250000  0.555419  0.570269  1
  P  P6  1  0.750000  0.444581  0.429731  1
  O  O7  1  0.983946  0.130406  0.537824  1
  O  O8  1  0.510251  0.519575  0.402527  1
  O  O9  1  0.250000  0.494868  0.509218  1
  O  O10  1  0.750000  0.505132  0.490782  1
  O  O11  1  0.516054  0.130406  0.537824  1
  O  O12  1  0.250000  0.762007  0.572380  1
  O  O13  1  0.016054  0.869594  0.462176  1
  O  O14  1  0.483946  0.869594  0.462176  1
  O  O15  1  0.010251  0.480425  0.597473  1
  O  O16  1  0.750000  0.237993  0.427620  1
  O  O17  1  0.989749  0.519575  0.402527  1
  O  O18  1  0.489749  0.480425  0.597473  1
