# generated using pymatgen
data_CuTe2Cl
_symmetry_space_group_name_H-M   'P 1'
_cell_length_a   5.07971088
_cell_length_b   8.09154272
_cell_length_c   22.71820500
_cell_angle_alpha   90.00000000
_cell_angle_beta   90.00000000
_cell_angle_gamma   90.00000000
_symmetry_Int_Tables_number   1
_chemical_formula_structural   CuTe2Cl
_chemical_formula_sum   'Cu2 Te4 Cl2'
_cell_volume   933.77950992
_cell_formula_units_Z   2
loop_
 _symmetry_equiv_pos_site_id
 _symmetry_equiv_pos_as_xyz
  1  'x, y, z'
loop_
 _atom_site_type_symbol
 _atom_site_label
 _atom_site_symmetry_multiplicity
 _atom_site_fract_x
 _atom_site_fract_y
 _atom_site_fract_z
 _atom_site_occupancy
  Cu  Cu1  1  0.138267  0.664606  0.499871  1
  Cu  Cu2  1  0.638267  0.335394  0.500129  1
  Te  Te3  1  0.793635  0.841332  0.446876  1
  Te  Te4  1  0.293635  0.158668  0.553124  1
  Te  Te5  1  0.980383  0.157648  0.446967  1
  Te  Te6  1  0.480383  0.842352  0.553033  1
  Cl  Cl7  1  0.889242  0.500158  0.563444  1
  Cl  Cl8  1  0.389242  0.499842  0.436556  1
