# generated using pymatgen
data_Ba(BSe3)2
_symmetry_space_group_name_H-M   'P 1'
_cell_length_a   6.87480308
_cell_length_b   6.87480348
_cell_length_c   22.87915100
_cell_angle_alpha   90.00000000
_cell_angle_beta   90.00000000
_cell_angle_gamma   111.97781613
_symmetry_Int_Tables_number   1
_chemical_formula_structural   Ba(BSe3)2
_chemical_formula_sum   'Ba1 B2 Se6'
_cell_volume   1002.75356732
_cell_formula_units_Z   1
loop_
 _symmetry_equiv_pos_site_id
 _symmetry_equiv_pos_as_xyz
  1  'x, y, z'
loop_
 _atom_site_type_symbol
 _atom_site_label
 _atom_site_symmetry_multiplicity
 _atom_site_fract_x
 _atom_site_fract_y
 _atom_site_fract_z
 _atom_site_occupancy
  Ba  Ba1  1  0.500000  0.500000  0.500000  1
  B  B2  1  0.887538  0.112462  0.500000  1
  B  B3  1  0.112462  0.887538  0.500000  1
  Se  Se4  1  0.607795  0.022551  0.543291  1
  Se  Se5  1  0.392205  0.977449  0.456709  1
  Se  Se6  1  0.977449  0.392205  0.456709  1
  Se  Se7  1  0.900437  0.900437  0.436889  1
  Se  Se8  1  0.099563  0.099563  0.563110  1
  Se  Se9  1  0.022551  0.607795  0.543291  1
