# generated using pymatgen
data_GePbS3
_symmetry_space_group_name_H-M   'P 1'
_cell_length_a   6.90246712
_cell_length_b   10.37304210
_cell_length_c   27.26557100
_cell_angle_alpha   90.00000000
_cell_angle_beta   90.00000000
_cell_angle_gamma   90.00000000
_symmetry_Int_Tables_number   1
_chemical_formula_structural   GePbS3
_chemical_formula_sum   'Ge4 Pb4 S12'
_cell_volume   1952.20348740
_cell_formula_units_Z   4
loop_
 _symmetry_equiv_pos_site_id
 _symmetry_equiv_pos_as_xyz
  1  'x, y, z'
loop_
 _atom_site_type_symbol
 _atom_site_label
 _atom_site_symmetry_multiplicity
 _atom_site_fract_x
 _atom_site_fract_y
 _atom_site_fract_z
 _atom_site_occupancy
  Ge  Ge1  1  0.901917  0.210458  0.583763  1
  Ge  Ge2  1  0.401917  0.289542  0.583763  1
  Ge  Ge3  1  0.098083  0.789542  0.416237  1
  Ge  Ge4  1  0.598083  0.710458  0.416237  1
  Pb  Pb5  1  0.744282  0.575876  0.534350  1
  Pb  Pb6  1  0.244282  0.924124  0.534350  1
  Pb  Pb7  1  0.755718  0.075876  0.465650  1
  Pb  Pb8  1  0.255718  0.424124  0.465650  1
  S  S9  1  0.348299  0.492722  0.560072  1
  S  S10  1  0.836941  0.780797  0.366020  1
  S  S11  1  0.398016  0.176474  0.514410  1
  S  S12  1  0.898016  0.323526  0.514410  1
  S  S13  1  0.848299  0.007278  0.560072  1
  S  S14  1  0.336941  0.719203  0.366020  1
  S  S15  1  0.651701  0.507278  0.439928  1
  S  S16  1  0.663059  0.280797  0.633980  1
  S  S17  1  0.101984  0.676474  0.485590  1
  S  S18  1  0.601984  0.823526  0.485590  1
  S  S19  1  0.151701  0.992722  0.439928  1
  S  S20  1  0.163059  0.219203  0.633980  1
