# generated using pymatgen
data_CdSbS2Cl
_symmetry_space_group_name_H-M   'P 1'
_cell_length_a   3.78364500
_cell_length_b   10.33986719
_cell_length_c   25.52521100
_cell_angle_alpha   90.00000000
_cell_angle_beta   90.00000000
_cell_angle_gamma   90.00000000
_symmetry_Int_Tables_number   1
_chemical_formula_structural   CdSbS2Cl
_chemical_formula_sum   'Cd2 Sb2 S4 Cl2'
_cell_volume   998.60717774
_cell_formula_units_Z   2
loop_
 _symmetry_equiv_pos_site_id
 _symmetry_equiv_pos_as_xyz
  1  'x, y, z'
loop_
 _atom_site_type_symbol
 _atom_site_label
 _atom_site_symmetry_multiplicity
 _atom_site_fract_x
 _atom_site_fract_y
 _atom_site_fract_z
 _atom_site_occupancy
  Cd  Cd1  1  0.500000  0.001791  0.507895  1
  Cd  Cd2  1  0.500000  0.501791  0.492105  1
  Sb  Sb3  1  -0.000000  0.170929  0.399506  1
  Sb  Sb4  1  0.000000  0.670929  0.600494  1
  S  S5  1  0.500000  0.248948  0.459258  1
  S  S6  1  -0.000000  0.454618  0.567484  1
  S  S7  1  -0.000000  0.954618  0.432516  1
  S  S8  1  0.500000  0.748948  0.540742  1
  Cl  Cl9  1  -0.000000  0.068775  0.571282  1
  Cl  Cl10  1  -0.000000  0.568775  0.428718  1
