# generated using pymatgen
data_FeP3(H2O3)3
_symmetry_space_group_name_H-M   'P 1'
_cell_length_a   6.46125195
_cell_length_b   9.77601221
_cell_length_c   27.94741600
_cell_angle_alpha   90.00000000
_cell_angle_beta   90.00000000
_cell_angle_gamma   90.00000000
_symmetry_Int_Tables_number   1
_chemical_formula_structural   FeP3(H2O3)3
_chemical_formula_sum   'Fe2 P6 H12 O18'
_cell_volume   1765.30629977
_cell_formula_units_Z   2
loop_
 _symmetry_equiv_pos_site_id
 _symmetry_equiv_pos_as_xyz
  1  'x, y, z'
loop_
 _atom_site_type_symbol
 _atom_site_label
 _atom_site_symmetry_multiplicity
 _atom_site_fract_x
 _atom_site_fract_y
 _atom_site_fract_z
 _atom_site_occupancy
  Fe  Fe1  1  0.113536  0.001462  0.501567  1
  Fe  Fe2  1  0.886464  0.501462  0.501567  1
  P  P3  1  0.403296  0.579822  0.503344  1
  P  P4  1  0.596705  0.079822  0.503344  1
  P  P5  1  0.096119  0.268666  0.432242  1
  P  P6  1  0.903881  0.768666  0.432242  1
  P  P7  1  0.046709  0.268349  0.576435  1
  P  P8  1  0.953291  0.768349  0.576435  1
  H  H9  1  0.435117  0.664889  0.543306  1
  H  H10  1  0.564883  0.164889  0.543306  1
  H  H11  1  0.280083  0.334457  0.445172  1
  H  H12  1  0.719917  0.834457  0.445172  1
  H  H13  1  0.203774  0.340106  0.600648  1
  H  H14  1  0.796227  0.840106  0.600648  1
  H  H15  1  0.297592  0.746417  0.456244  1
  H  H16  1  0.702408  0.246417  0.456244  1
  H  H17  1  0.859682  0.723791  0.356333  1
  H  H18  1  0.140318  0.223791  0.356333  1
  H  H19  1  0.198917  0.724410  0.626800  1
  H  H20  1  0.801083  0.224410  0.626800  1
  O  O21  1  0.193785  0.510597  0.509436  1
  O  O22  1  0.806215  0.010597  0.509436  1
  O  O23  1  0.418904  0.978584  0.499254  1
  O  O24  1  0.581097  0.478584  0.499254  1
  O  O25  1  0.411498  0.675811  0.458016  1
  O  O26  1  0.588502  0.175811  0.458016  1
  O  O27  1  0.108429  0.116601  0.442084  1
  O  O28  1  0.891572  0.616601  0.442084  1
  O  O29  1  0.087641  0.840828  0.455540  1
  O  O30  1  0.912359  0.340828  0.455540  1
  O  O31  1  0.929878  0.792426  0.375760  1
  O  O32  1  0.070122  0.292426  0.375760  1
  O  O33  1  0.112966  0.866960  0.556708  1
  O  O34  1  0.887034  0.366960  0.556708  1
  O  O35  1  0.067532  0.682135  0.617956  1
  O  O36  1  0.932468  0.182135  0.617956  1
  O  O37  1  0.152841  0.168778  0.543153  1
  O  O38  1  0.847159  0.668778  0.543153  1
