# generated using pymatgen
data_NbFeTe2
_symmetry_space_group_name_H-M   'P 1'
_cell_length_a   6.34222339
_cell_length_b   7.97262279
_cell_length_c   24.71565700
_cell_angle_alpha   90.00000000
_cell_angle_beta   90.00000000
_cell_angle_gamma   90.00000000
_symmetry_Int_Tables_number   1
_chemical_formula_structural   NbFeTe2
_chemical_formula_sum   'Nb4 Fe4 Te8'
_cell_volume   1249.72630501
_cell_formula_units_Z   4
loop_
 _symmetry_equiv_pos_site_id
 _symmetry_equiv_pos_as_xyz
  1  'x, y, z'
loop_
 _atom_site_type_symbol
 _atom_site_label
 _atom_site_symmetry_multiplicity
 _atom_site_fract_x
 _atom_site_fract_y
 _atom_site_fract_z
 _atom_site_occupancy
  Nb  Nb1  1  0.500000  0.295584  0.500000  1
  Nb  Nb2  1  0.000000  0.795584  0.500000  1
  Nb  Nb3  1  0.000000  0.204416  0.500000  1
  Nb  Nb4  1  0.500000  0.704416  0.500000  1
  Fe  Fe5  1  0.140873  0.500000  0.533000  1
  Fe  Fe6  1  0.640873  -0.000000  0.467000  1
  Fe  Fe7  1  0.859127  0.500000  0.467000  1
  Fe  Fe8  1  0.359127  -0.000000  0.533000  1
  Te  Te9  1  0.750000  0.750000  0.404554  1
  Te  Te10  1  0.246041  -0.000000  0.430808  1
  Te  Te11  1  0.753959  -0.000000  0.569192  1
  Te  Te12  1  0.250000  0.750000  0.595446  1
  Te  Te13  1  0.746041  0.500000  0.569192  1
  Te  Te14  1  0.253959  0.500000  0.430808  1
  Te  Te15  1  0.250000  0.250000  0.595446  1
  Te  Te16  1  0.750000  0.250000  0.404554  1
