# generated using pymatgen
data_HoTe2ClO5
_symmetry_space_group_name_H-M   'P 1'
_cell_length_a   7.60593581
_cell_length_b   7.91231213
_cell_length_c   28.40507100
_cell_angle_alpha   90.00000000
_cell_angle_beta   90.00000000
_cell_angle_gamma   88.10675288
_symmetry_Int_Tables_number   1
_chemical_formula_structural   HoTe2ClO5
_chemical_formula_sum   'Ho4 Te8 Cl4 O20'
_cell_volume   1708.49930854
_cell_formula_units_Z   4
loop_
 _symmetry_equiv_pos_site_id
 _symmetry_equiv_pos_as_xyz
  1  'x, y, z'
loop_
 _atom_site_type_symbol
 _atom_site_label
 _atom_site_symmetry_multiplicity
 _atom_site_fract_x
 _atom_site_fract_y
 _atom_site_fract_z
 _atom_site_occupancy
  Ho  Ho1  1  0.750058  0.499172  0.482923  1
  Ho  Ho2  1  0.250187  0.001210  0.493781  1
  Ho  Ho3  1  0.249942  0.500828  0.517077  1
  Ho  Ho4  1  0.749813  0.998790  0.506219  1
  Te  Te5  1  0.890145  0.307492  0.591746  1
  Te  Te6  1  0.109855  0.692508  0.408254  1
  Te  Te7  1  0.609646  0.690956  0.591951  1
  Te  Te8  1  0.438775  0.144617  0.593540  1
  Te  Te9  1  0.938879  0.144286  0.406490  1
  Te  Te10  1  0.390354  0.309044  0.408049  1
  Te  Te11  1  0.561225  0.855383  0.406460  1
  Te  Te12  1  0.061121  0.855714  0.593510  1
  Cl  Cl13  1  0.250790  0.504808  0.619963  1
  Cl  Cl14  1  0.749210  0.495192  0.380037  1
  Cl  Cl15  1  0.252873  0.000079  0.350613  1
  Cl  Cl16  1  0.747127  0.999921  0.649387  1
  O  O17  1  0.250909  0.501019  0.380306  1
  O  O18  1  0.533101  0.573238  0.538401  1
  O  O19  1  0.188637  0.770584  0.540038  1
  O  O20  1  0.250325  0.999652  0.619220  1
  O  O21  1  0.466899  0.426762  0.461599  1
  O  O22  1  0.690232  0.236826  0.554980  1
  O  O23  1  0.309768  0.763174  0.445020  1
  O  O24  1  0.033071  0.572439  0.461364  1
  O  O25  1  0.190529  0.237155  0.444784  1
  O  O26  1  0.308638  0.231561  0.540672  1
  O  O27  1  0.966929  0.427561  0.538636  1
  O  O28  1  0.749091  0.498981  0.619694  1
  O  O29  1  0.749675  0.000348  0.380780  1
  O  O30  1  0.498388  0.043033  0.449106  1
  O  O31  1  0.996976  0.044602  0.551184  1
  O  O32  1  0.501612  0.956967  0.550894  1
  O  O33  1  0.811363  0.229416  0.459962  1
  O  O34  1  0.809471  0.762845  0.555216  1
  O  O35  1  0.691362  0.768439  0.459328  1
  O  O36  1  0.003024  0.955398  0.448816  1
