# generated using pymatgen
data_UTeO
_symmetry_space_group_name_H-M   'P 1'
_cell_length_a   3.86882520
_cell_length_b   3.86882520
_cell_length_c   25.63468500
_cell_angle_alpha   90.00000000
_cell_angle_beta   90.00000000
_cell_angle_gamma   90.00000000
_symmetry_Int_Tables_number   1
_chemical_formula_structural   UTeO
_chemical_formula_sum   'U2 Te2 O2'
_cell_volume   383.69505420
_cell_formula_units_Z   2
loop_
 _symmetry_equiv_pos_site_id
 _symmetry_equiv_pos_as_xyz
  1  'x, y, z'
loop_
 _atom_site_type_symbol
 _atom_site_label
 _atom_site_symmetry_multiplicity
 _atom_site_fract_x
 _atom_site_fract_y
 _atom_site_fract_z
 _atom_site_occupancy
  U  U1  1  0.000000  0.500000  0.449842  1
  U  U2  1  0.500000  0.000000  0.550158  1
  Te  Te3  1  -0.000000  0.500000  0.615958  1
  Te  Te4  1  0.500000  -0.000000  0.384042  1
  O  O5  1  0.500000  0.500000  0.500000  1
  O  O6  1  0.000000  0.000000  0.500000  1
