# generated using pymatgen
data_GeP
_symmetry_space_group_name_H-M   'P 1'
_cell_length_a   3.65642950
_cell_length_b   10.88216036
_cell_length_c   24.93954600
_cell_angle_alpha   90.00000000
_cell_angle_beta   90.00000000
_cell_angle_gamma   99.67161822
_symmetry_Int_Tables_number   1
_chemical_formula_structural   GeP
_chemical_formula_sum   'Ge6 P6'
_cell_volume   978.23651961
_cell_formula_units_Z   6
loop_
 _symmetry_equiv_pos_site_id
 _symmetry_equiv_pos_as_xyz
  1  'x, y, z'
loop_
 _atom_site_type_symbol
 _atom_site_label
 _atom_site_symmetry_multiplicity
 _atom_site_fract_x
 _atom_site_fract_y
 _atom_site_fract_z
 _atom_site_occupancy
  Ge  Ge1  1  0.055862  0.111724  0.512274  1
  Ge  Ge2  1  0.944138  0.888276  0.487726  1
  Ge  Ge3  1  0.680228  0.360457  0.454652  1
  Ge  Ge4  1  0.319772  0.639544  0.545348  1
  Ge  Ge5  1  0.682805  0.365610  0.554670  1
  Ge  Ge6  1  0.317195  0.634390  0.445330  1
  P  P7  1  0.770536  0.541073  0.399830  1
  P  P8  1  0.229464  0.458927  0.600170  1
  P  P9  1  0.574498  0.148996  0.571397  1
  P  P10  1  0.425502  0.851004  0.428603  1
  P  P11  1  0.115320  0.230639  0.430478  1
  P  P12  1  0.884680  0.769361  0.569522  1
