# generated using pymatgen
data_YbSi2Ni
_symmetry_space_group_name_H-M   'P 1'
_cell_length_a   3.97502060
_cell_length_b   3.96974281
_cell_length_c   27.12233200
_cell_angle_alpha   90.00000000
_cell_angle_beta   90.00000000
_cell_angle_gamma   90.00000000
_symmetry_Int_Tables_number   1
_chemical_formula_structural   YbSi2Ni
_chemical_formula_sum   'Yb2 Si4 Ni2'
_cell_volume   427.98523070
_cell_formula_units_Z   2
loop_
 _symmetry_equiv_pos_site_id
 _symmetry_equiv_pos_as_xyz
  1  'x, y, z'
loop_
 _atom_site_type_symbol
 _atom_site_label
 _atom_site_symmetry_multiplicity
 _atom_site_fract_x
 _atom_site_fract_y
 _atom_site_fract_z
 _atom_site_occupancy
  Yb  Yb1  1  0.000000  0.500000  0.591906  1
  Yb  Yb2  1  0.500000  0.000000  0.408094  1
  Si  Si3  1  -0.000000  0.500000  0.372764  1
  Si  Si4  1  0.500000  -0.000000  0.627236  1
  Si  Si5  1  0.000000  -0.000000  0.500104  1
  Si  Si6  1  0.500000  0.500000  0.499896  1
  Ni  Ni7  1  -0.000000  0.500000  0.455508  1
  Ni  Ni8  1  0.500000  0.000000  0.544492  1
