# generated using pymatgen
data_TcSO6F
_symmetry_space_group_name_H-M   'P 1'
_cell_length_a   8.14628556
_cell_length_b   8.98154958
_cell_length_c   25.99168200
_cell_angle_alpha   90.00000000
_cell_angle_beta   90.00000000
_cell_angle_gamma   90.00000000
_symmetry_Int_Tables_number   1
_chemical_formula_structural   TcSO6F
_chemical_formula_sum   'Tc4 S4 O24 F4'
_cell_volume   1901.71436189
_cell_formula_units_Z   4
loop_
 _symmetry_equiv_pos_site_id
 _symmetry_equiv_pos_as_xyz
  1  'x, y, z'
loop_
 _atom_site_type_symbol
 _atom_site_label
 _atom_site_symmetry_multiplicity
 _atom_site_fract_x
 _atom_site_fract_y
 _atom_site_fract_z
 _atom_site_occupancy
  Tc  Tc1  1  0.348575  0.181028  0.429036  1
  Tc  Tc2  1  0.151425  0.681028  0.429036  1
  Tc  Tc3  1  0.651425  0.818972  0.570964  1
  Tc  Tc4  1  0.848575  0.318972  0.570964  1
  S  S5  1  0.772701  0.580676  0.476199  1
  S  S6  1  0.227299  0.419324  0.523801  1
  S  S7  1  0.727299  0.080676  0.476199  1
  S  S8  1  0.272701  0.919324  0.523801  1
  O  O9  1  0.095404  0.810127  0.384187  1
  O  O10  1  0.853618  0.138997  0.510184  1
  O  O11  1  0.104811  0.511775  0.402419  1
  O  O12  1  0.161434  0.562306  0.508410  1
  O  O13  1  0.146382  0.861003  0.489816  1
  O  O14  1  0.838566  0.437694  0.491590  1
  O  O15  1  0.904596  0.189873  0.615813  1
  O  O16  1  0.604811  0.988225  0.597581  1
  O  O17  1  0.895189  0.488225  0.597581  1
  O  O18  1  0.395189  0.011775  0.402419  1
  O  O19  1  0.661434  0.937694  0.491590  1
  O  O20  1  0.638782  0.313298  0.569467  1
  O  O21  1  0.361218  0.686702  0.430533  1
  O  O22  1  0.894143  0.691113  0.461353  1
  O  O23  1  0.138782  0.186702  0.430533  1
  O  O24  1  0.105857  0.308887  0.538647  1
  O  O25  1  0.404596  0.310127  0.384187  1
  O  O26  1  0.338566  0.062306  0.508410  1
  O  O27  1  0.353618  0.361003  0.489816  1
  O  O28  1  0.605857  0.191113  0.461353  1
  O  O29  1  0.595404  0.689873  0.615813  1
  O  O30  1  0.861218  0.813298  0.569467  1
  O  O31  1  0.646382  0.638997  0.510184  1
  O  O32  1  0.394143  0.808887  0.538647  1
  F  F33  1  0.178991  0.954769  0.574920  1
  F  F34  1  0.678991  0.545231  0.425080  1
  F  F35  1  0.321009  0.454769  0.574920  1
  F  F36  1  0.821009  0.045231  0.425080  1
