# generated using pymatgen
data_LiMg6C
_symmetry_space_group_name_H-M   'P 1'
_cell_length_a   3.31396508
_cell_length_b   8.47834200
_cell_length_c   22.92925880
_cell_angle_alpha   90.00000000
_cell_angle_beta   90.00000000
_cell_angle_gamma   90.00000000
_symmetry_Int_Tables_number   1
_chemical_formula_structural   LiMg6C
_chemical_formula_sum   'Li1 Mg6 C1'
_cell_volume   644.24176396
_cell_formula_units_Z   1
loop_
 _symmetry_equiv_pos_site_id
 _symmetry_equiv_pos_as_xyz
  1  'x, y, z'
loop_
 _atom_site_type_symbol
 _atom_site_label
 _atom_site_symmetry_multiplicity
 _atom_site_fract_x
 _atom_site_fract_y
 _atom_site_fract_z
 _atom_site_occupancy
  Li  Li1  1  0.500000  0.500000  0.461726  1
  Mg  Mg2  1  0.500000  0.335212  0.553085  1
  Mg  Mg3  1  0.500000  0.664788  0.553085  1
  Mg  Mg4  1  0.500000  0.000000  0.459309  1
  Mg  Mg5  1  0.000000  0.719747  0.441321  1
  Mg  Mg6  1  0.000000  0.280253  0.441321  1
  Mg  Mg7  1  0.000000  0.000000  0.572591  1
  C  C8  1  0.000000  0.500000  0.517561  1
