# generated using pymatgen
data_LiMnSe2
_symmetry_space_group_name_H-M   'P 1'
_cell_length_a   4.13150367
_cell_length_b   4.13150377
_cell_length_c   24.40637100
_cell_angle_alpha   90.00000000
_cell_angle_beta   90.00000000
_cell_angle_gamma   119.99999926
_symmetry_Int_Tables_number   1
_chemical_formula_structural   LiMnSe2
_chemical_formula_sum   'Li1 Mn1 Se2'
_cell_volume   360.78638499
_cell_formula_units_Z   1
loop_
 _symmetry_equiv_pos_site_id
 _symmetry_equiv_pos_as_xyz
  1  'x, y, z'
loop_
 _atom_site_type_symbol
 _atom_site_label
 _atom_site_symmetry_multiplicity
 _atom_site_fract_x
 _atom_site_fract_y
 _atom_site_fract_z
 _atom_site_occupancy
  Li  Li1  1  0.000000  -0.000000  0.430264  1
  Mn  Mn2  1  0.333333  0.666667  0.545736  1
  Se  Se3  1  0.333333  0.666667  0.449771  1
  Se  Se4  1  0.666667  0.333333  0.574230  1
