# generated using pymatgen
data_Cr3O8
_symmetry_space_group_name_H-M   'P 1'
_cell_length_a   5.60702738
_cell_length_b   5.65926689
_cell_length_c   22.25284232
_cell_angle_alpha   90.00967698
_cell_angle_beta   90.00385738
_cell_angle_gamma   119.66298645
_symmetry_Int_Tables_number   1
_chemical_formula_structural   Cr3O8
_chemical_formula_sum   'Cr3 O8'
_cell_volume   613.58370836
_cell_formula_units_Z   1
loop_
 _symmetry_equiv_pos_site_id
 _symmetry_equiv_pos_as_xyz
  1  'x, y, z'
loop_
 _atom_site_type_symbol
 _atom_site_label
 _atom_site_symmetry_multiplicity
 _atom_site_fract_x
 _atom_site_fract_y
 _atom_site_fract_z
 _atom_site_occupancy
  Cr  Cr1  1  0.065063  0.130244  0.470361  1
  Cr  Cr2  1  0.731506  0.463136  0.499996  1
  Cr  Cr3  1  0.398067  0.795991  0.529633  1
  O  O4  1  0.896046  0.303896  0.450395  1
  O  O5  1  0.064057  0.128053  0.541569  1
  O  O6  1  0.407243  0.303622  0.450372  1
  O  O7  1  0.398973  0.798124  0.458423  1
  O  O8  1  0.563290  0.126420  0.550862  1
  O  O9  1  0.566993  0.622333  0.549634  1
  O  O10  1  0.055855  0.622632  0.549628  1
  O  O11  1  0.899793  0.799783  0.449129  1
