# generated using pymatgen
data_AgBiSCl2
_symmetry_space_group_name_H-M   'P 1'
_cell_length_a   3.87945399
_cell_length_b   9.67557354
_cell_length_c   25.92172600
_cell_angle_alpha   90.00000000
_cell_angle_beta   90.00000000
_cell_angle_gamma   90.00000000
_symmetry_Int_Tables_number   1
_chemical_formula_structural   AgBiSCl2
_chemical_formula_sum   'Ag2 Bi2 S2 Cl4'
_cell_volume   972.99641340
_cell_formula_units_Z   2
loop_
 _symmetry_equiv_pos_site_id
 _symmetry_equiv_pos_as_xyz
  1  'x, y, z'
loop_
 _atom_site_type_symbol
 _atom_site_label
 _atom_site_symmetry_multiplicity
 _atom_site_fract_x
 _atom_site_fract_y
 _atom_site_fract_z
 _atom_site_occupancy
  Ag  Ag1  1  -0.000000  0.500000  0.500000  1
  Ag  Ag2  1  0.000000  0.000000  0.500000  1
  Bi  Bi3  1  0.500000  0.250000  0.596853  1
  Bi  Bi4  1  0.500000  0.750000  0.403147  1
  S  S5  1  -0.000000  0.250000  0.528208  1
  S  S6  1  -0.000000  0.750000  0.471791  1
  Cl  Cl7  1  0.500000  0.473989  0.414052  1
  Cl  Cl8  1  0.500000  0.526011  0.585948  1
  Cl  Cl9  1  0.500000  0.973989  0.585948  1
  Cl  Cl10  1  0.500000  0.026011  0.414052  1
