# generated using pymatgen
data_Ca2CoO3
_symmetry_space_group_name_H-M   'P 1'
_cell_length_a   3.83388401
_cell_length_b   3.83388465
_cell_length_c   24.23513300
_cell_angle_alpha   90.00000000
_cell_angle_beta   90.00000000
_cell_angle_gamma   61.35032554
_symmetry_Int_Tables_number   1
_chemical_formula_structural   Ca2CoO3
_chemical_formula_sum   'Ca2 Co1 O3'
_cell_volume   312.61082593
_cell_formula_units_Z   1
loop_
 _symmetry_equiv_pos_site_id
 _symmetry_equiv_pos_as_xyz
  1  'x, y, z'
loop_
 _atom_site_type_symbol
 _atom_site_label
 _atom_site_symmetry_multiplicity
 _atom_site_fract_x
 _atom_site_fract_y
 _atom_site_fract_z
 _atom_site_occupancy
  Ca  Ca1  1  0.142625  0.142625  0.412933  1
  Ca  Ca2  1  0.857375  0.857375  0.587067  1
  Co  Co3  1  0.500000  0.500000  0.500000  1
  O  O4  1  -0.000000  -0.000000  0.500000  1
  O  O5  1  0.517237  0.517237  0.587371  1
  O  O6  1  0.482763  0.482763  0.412629  1
