# generated using pymatgen
data_YbCoGe2
_symmetry_space_group_name_H-M   'P 1'
_cell_length_a   4.14974503
_cell_length_b   4.15124939
_cell_length_c   26.88967000
_cell_angle_alpha   90.00000000
_cell_angle_beta   90.00000000
_cell_angle_gamma   90.00000000
_symmetry_Int_Tables_number   1
_chemical_formula_structural   YbCoGe2
_chemical_formula_sum   'Yb2 Co2 Ge4'
_cell_volume   463.21830246
_cell_formula_units_Z   2
loop_
 _symmetry_equiv_pos_site_id
 _symmetry_equiv_pos_as_xyz
  1  'x, y, z'
loop_
 _atom_site_type_symbol
 _atom_site_label
 _atom_site_symmetry_multiplicity
 _atom_site_fract_x
 _atom_site_fract_y
 _atom_site_fract_z
 _atom_site_occupancy
  Yb  Yb1  1  -0.000000  0.000000  0.408565  1
  Yb  Yb2  1  0.500000  0.500000  0.591435  1
  Co  Co3  1  0.000000  -0.000000  0.542085  1
  Co  Co4  1  0.500000  0.500000  0.457915  1
  Ge  Ge5  1  0.000000  0.000000  0.624906  1
  Ge  Ge6  1  0.500000  0.500000  0.375094  1
  Ge  Ge7  1  -0.000000  0.500000  0.499922  1
  Ge  Ge8  1  0.500000  -0.000000  0.500078  1
