# generated using pymatgen
data_Sb2Se3
_symmetry_space_group_name_H-M   'P 1'
_cell_length_a   4.03548593
_cell_length_b   11.08418288
_cell_length_c   25.24431400
_cell_angle_alpha   90.00000000
_cell_angle_beta   90.00000000
_cell_angle_gamma   90.00000000
_symmetry_Int_Tables_number   1
_chemical_formula_structural   Sb2Se3
_chemical_formula_sum   'Sb4 Se6'
_cell_volume   1129.17978231
_cell_formula_units_Z   2
loop_
 _symmetry_equiv_pos_site_id
 _symmetry_equiv_pos_as_xyz
  1  'x, y, z'
loop_
 _atom_site_type_symbol
 _atom_site_label
 _atom_site_symmetry_multiplicity
 _atom_site_fract_x
 _atom_site_fract_y
 _atom_site_fract_z
 _atom_site_occupancy
  Sb  Sb1  1  0.750000  0.044918  0.570361  1
  Sb  Sb2  1  0.250000  0.955082  0.429639  1
  Sb  Sb3  1  0.250000  0.344331  0.519079  1
  Sb  Sb4  1  0.750000  0.655669  0.480921  1
  Se  Se5  1  0.750000  0.142825  0.476663  1
  Se  Se6  1  0.250000  0.857175  0.523337  1
  Se  Se7  1  0.250000  0.194397  0.608299  1
  Se  Se8  1  0.750000  0.805603  0.391701  1
  Se  Se9  1  0.250000  0.533521  0.431323  1
  Se  Se10  1  0.750000  0.466479  0.568677  1
