# generated using pymatgen
data_Mo2HO6
_symmetry_space_group_name_H-M   'P 1'
_cell_length_a   3.81240493
_cell_length_b   3.83671450
_cell_length_c   26.91646000
_cell_angle_alpha   90.00000000
_cell_angle_beta   90.00000000
_cell_angle_gamma   90.08472852
_symmetry_Int_Tables_number   1
_chemical_formula_structural   Mo2HO6
_chemical_formula_sum   'Mo2 H1 O6'
_cell_volume   393.70957118
_cell_formula_units_Z   1
loop_
 _symmetry_equiv_pos_site_id
 _symmetry_equiv_pos_as_xyz
  1  'x, y, z'
loop_
 _atom_site_type_symbol
 _atom_site_label
 _atom_site_symmetry_multiplicity
 _atom_site_fract_x
 _atom_site_fract_y
 _atom_site_fract_z
 _atom_site_occupancy
  Mo  Mo1  1  0.740475  0.007179  0.465368  1
  Mo  Mo2  1  0.243357  0.001309  0.571630  1
  H  H3  1  0.675991  0.784722  0.378867  1
  O  O4  1  0.742567  0.004501  0.548683  1
  O  O5  1  0.240409  0.005515  0.480947  1
  O  O6  1  0.744013  0.507060  0.464177  1
  O  O7  1  0.243395  0.503022  0.561702  1
  O  O8  1  0.710616  0.015392  0.393873  1
  O  O9  1  0.245623  0.002403  0.634753  1
