# generated using pymatgen
data_In4Se3
_symmetry_space_group_name_H-M   'P 1'
_cell_length_a   4.04431471
_cell_length_b   12.17419019
_cell_length_c   30.19477300
_cell_angle_alpha   90.00000000
_cell_angle_beta   90.00000000
_cell_angle_gamma   90.00000000
_symmetry_Int_Tables_number   1
_chemical_formula_structural   In4Se3
_chemical_formula_sum   'In8 Se6'
_cell_volume   1486.67758741
_cell_formula_units_Z   2
loop_
 _symmetry_equiv_pos_site_id
 _symmetry_equiv_pos_as_xyz
  1  'x, y, z'
loop_
 _atom_site_type_symbol
 _atom_site_label
 _atom_site_symmetry_multiplicity
 _atom_site_fract_x
 _atom_site_fract_y
 _atom_site_fract_z
 _atom_site_occupancy
  In  In1  1  -0.000000  0.609620  0.661184  1
  In  In2  1  0.500000  0.109620  0.338816  1
  In  In3  1  0.500000  0.863213  0.614025  1
  In  In4  1  -0.000000  0.363213  0.385975  1
  In  In5  1  0.500000  0.966187  0.530885  1
  In  In6  1  0.000000  0.466187  0.469115  1
  In  In7  1  0.500000  0.160927  0.479660  1
  In  In8  1  0.000000  0.660927  0.520340  1
  Se  Se9  1  0.500000  0.345883  0.329718  1
  Se  Se10  1  -0.000000  0.845883  0.670282  1
  Se  Se11  1  0.500000  0.362659  0.512723  1
  Se  Se12  1  0.000000  0.862659  0.487277  1
  Se  Se13  1  0.500000  0.645423  0.582363  1
  Se  Se14  1  0.000000  0.145423  0.417637  1
