# generated using pymatgen
data_HfTeSe4
_symmetry_space_group_name_H-M   'P 1'
_cell_length_a   3.85370740
_cell_length_b   6.83812112
_cell_length_c   23.21272800
_cell_angle_alpha   90.00000000
_cell_angle_beta   90.00000000
_cell_angle_gamma   90.00000000
_symmetry_Int_Tables_number   1
_chemical_formula_structural   HfTeSe4
_chemical_formula_sum   'Hf1 Te1 Se4'
_cell_volume   611.70454648
_cell_formula_units_Z   1
loop_
 _symmetry_equiv_pos_site_id
 _symmetry_equiv_pos_as_xyz
  1  'x, y, z'
loop_
 _atom_site_type_symbol
 _atom_site_label
 _atom_site_symmetry_multiplicity
 _atom_site_fract_x
 _atom_site_fract_y
 _atom_site_fract_z
 _atom_site_occupancy
  Hf  Hf1  1  0.500000  0.500000  0.500000  1
  Te  Te2  1  0.000000  0.000000  0.500000  1
  Se  Se3  1  0.000000  0.342443  0.566928  1
  Se  Se4  1  0.500000  0.184616  0.430361  1
  Se  Se5  1  0.500000  0.815384  0.569639  1
  Se  Se6  1  -0.000000  0.657557  0.433072  1
