# generated using pymatgen
data_TbMgNi
_symmetry_space_group_name_H-M   'P 1'
_cell_length_a   3.69623762
_cell_length_b   3.83433659
_cell_length_c   27.13484800
_cell_angle_alpha   90.00000000
_cell_angle_beta   90.00000000
_cell_angle_gamma   90.00000000
_symmetry_Int_Tables_number   1
_chemical_formula_structural   TbMgNi
_chemical_formula_sum   'Tb2 Mg2 Ni2'
_cell_volume   384.57186644
_cell_formula_units_Z   2
loop_
 _symmetry_equiv_pos_site_id
 _symmetry_equiv_pos_as_xyz
  1  'x, y, z'
loop_
 _atom_site_type_symbol
 _atom_site_label
 _atom_site_symmetry_multiplicity
 _atom_site_fract_x
 _atom_site_fract_y
 _atom_site_fract_z
 _atom_site_occupancy
  Tb  Tb1  1  -0.000000  0.750000  0.443631  1
  Tb  Tb2  1  -0.000000  0.250000  0.556369  1
  Mg  Mg3  1  0.500000  0.750000  0.632151  1
  Mg  Mg4  1  0.500000  0.250000  0.367849  1
  Ni  Ni5  1  0.500000  0.750000  0.528651  1
  Ni  Ni6  1  0.500000  0.250000  0.471349  1
