# generated using pymatgen
data_Na2H6PtO6
_symmetry_space_group_name_H-M   'P 1'
_cell_length_a   5.74455273
_cell_length_b   5.74455308
_cell_length_c   23.75456700
_cell_angle_alpha   90.00000000
_cell_angle_beta   90.00000000
_cell_angle_gamma   119.99999802
_symmetry_Int_Tables_number   1
_chemical_formula_structural   Na2H6PtO6
_chemical_formula_sum   'Na2 H6 Pt1 O6'
_cell_volume   678.87564087
_cell_formula_units_Z   1
loop_
 _symmetry_equiv_pos_site_id
 _symmetry_equiv_pos_as_xyz
  1  'x, y, z'
loop_
 _atom_site_type_symbol
 _atom_site_label
 _atom_site_symmetry_multiplicity
 _atom_site_fract_x
 _atom_site_fract_y
 _atom_site_fract_z
 _atom_site_occupancy
  Na  Na1  1  0.333333  0.666667  0.514782  1
  Na  Na2  1  0.666667  0.333333  0.485218  1
  H  H3  1  0.831211  0.147556  0.580538  1
  H  H4  1  0.852444  0.683655  0.580538  1
  H  H5  1  0.316345  0.168789  0.580538  1
  H  H6  1  0.168789  0.852444  0.419462  1
  H  H7  1  0.147556  0.316345  0.419462  1
  H  H8  1  0.683655  0.831211  0.419462  1
  Pt  Pt9  1  -0.000000  -0.000000  0.500000  1
  O  O10  1  0.725534  0.026356  0.549926  1
  O  O11  1  0.973644  0.699178  0.549926  1
  O  O12  1  0.300822  0.274466  0.549926  1
  O  O13  1  0.274466  0.973644  0.450074  1
  O  O14  1  0.026356  0.300822  0.450074  1
  O  O15  1  0.699178  0.725534  0.450074  1
