# generated using pymatgen
data_WO3
_symmetry_space_group_name_H-M   'P 1'
_cell_length_a   6.08457971
_cell_length_b   6.08457960
_cell_length_c   18.96919268
_cell_angle_alpha   90.00000000
_cell_angle_beta   90.00000000
_cell_angle_gamma   120.00000597
_symmetry_Int_Tables_number   1
_chemical_formula_structural   WO3
_chemical_formula_sum   'W3 O9'
_cell_volume   608.19187719
_cell_formula_units_Z   3
loop_
 _symmetry_equiv_pos_site_id
 _symmetry_equiv_pos_as_xyz
  1  'x, y, z'
loop_
 _atom_site_type_symbol
 _atom_site_label
 _atom_site_symmetry_multiplicity
 _atom_site_fract_x
 _atom_site_fract_y
 _atom_site_fract_z
 _atom_site_occupancy
  W  W1  1  0.333114  0.000000  0.513580  1
  W  W2  1  0.666886  0.666886  0.513580  1
  W  W3  1  0.000000  0.333114  0.513580  1
  O  O4  1  0.333333  0.666667  0.505336  1
  O  O5  1  0.666667  0.333333  0.505336  1
  O  O6  1  -0.000000  -0.000000  0.507099  1
  O  O7  1  1.000000  0.665772  0.557832  1
  O  O8  1  0.334228  0.334228  0.557832  1
  O  O9  1  0.665772  1.000000  0.557832  1
  O  O10  1  0.000000  0.329756  0.422662  1
  O  O11  1  0.670244  0.670244  0.422662  1
  O  O12  1  0.329756  0.000000  0.422662  1
