# generated using pymatgen
data_CeI3
_symmetry_space_group_name_H-M   'P 1'
_cell_length_a   4.28847495
_cell_length_b   10.05459327
_cell_length_c   24.80387700
_cell_angle_alpha   90.00000000
_cell_angle_beta   90.00000000
_cell_angle_gamma   90.00000000
_symmetry_Int_Tables_number   1
_chemical_formula_structural   CeI3
_chemical_formula_sum   'Ce2 I6'
_cell_volume   1069.51518186
_cell_formula_units_Z   2
loop_
 _symmetry_equiv_pos_site_id
 _symmetry_equiv_pos_as_xyz
  1  'x, y, z'
loop_
 _atom_site_type_symbol
 _atom_site_label
 _atom_site_symmetry_multiplicity
 _atom_site_fract_x
 _atom_site_fract_y
 _atom_site_fract_z
 _atom_site_occupancy
  Ce  Ce1  1  0.500000  0.000000  0.504702  1
  Ce  Ce2  1  -0.000000  0.500000  0.495298  1
  I  I3  1  0.000000  0.816090  0.439979  1
  I  I4  1  0.500000  0.683910  0.560021  1
  I  I5  1  0.500000  0.316090  0.560021  1
  I  I6  1  -0.000000  0.183910  0.439979  1
  I  I7  1  -0.000000  0.000000  0.597269  1
  I  I8  1  0.500000  0.500000  0.402731  1
