# generated using pymatgen
data_Tl2Ge2Se5
_symmetry_space_group_name_H-M   'P 1'
_cell_length_a   10.99502311
_cell_length_b   10.99502274
_cell_length_c   25.80232400
_cell_angle_alpha   90.21690068
_cell_angle_beta   90.21690067
_cell_angle_gamma   89.82682866
_symmetry_Int_Tables_number   1
_chemical_formula_structural   Tl2Ge2Se5
_chemical_formula_sum   'Tl4 Ge4 Se10'
_cell_volume   3119.19778849
_cell_formula_units_Z   2
loop_
 _symmetry_equiv_pos_site_id
 _symmetry_equiv_pos_as_xyz
  1  'x, y, z'
loop_
 _atom_site_type_symbol
 _atom_site_label
 _atom_site_symmetry_multiplicity
 _atom_site_fract_x
 _atom_site_fract_y
 _atom_site_fract_z
 _atom_site_occupancy
  Tl  Tl1  1  0.604272  0.097895  0.446711  1
  Tl  Tl2  1  0.902105  0.395728  0.553289  1
  Tl  Tl3  1  0.899810  0.769403  0.554372  1
  Tl  Tl4  1  0.230597  0.100190  0.445628  1
  Ge  Ge5  1  0.577198  0.584595  0.555176  1
  Ge  Ge6  1  0.415405  0.422802  0.444824  1
  Ge  Ge7  1  0.414504  0.760422  0.449836  1
  Ge  Ge8  1  0.239578  0.585496  0.550164  1
  Se  Se9  1  0.591831  0.768937  0.505103  1
  Se  Se10  1  0.231063  0.408169  0.494897  1
  Se  Se11  1  0.404414  0.580511  0.610561  1
  Se  Se12  1  0.419489  0.595586  0.389439  1
  Se  Se13  1  0.747409  0.581247  0.609452  1
  Se  Se14  1  0.418753  0.252591  0.390548  1
  Se  Se15  1  0.417552  0.934434  0.398339  1
  Se  Se16  1  0.065566  0.582448  0.601661  1
  Se  Se17  1  0.230208  0.769792  0.500000  1
  Se  Se18  1  0.592699  0.407301  0.500000  1
