# generated using pymatgen
data_Zr(MoO4)2
_symmetry_space_group_name_H-M   'P 1'
_cell_length_a   6.17194325
_cell_length_b   6.17194372
_cell_length_c   22.31472400
_cell_angle_alpha   90.00000000
_cell_angle_beta   90.00000000
_cell_angle_gamma   119.99476252
_symmetry_Int_Tables_number   1
_chemical_formula_structural   Zr(MoO4)2
_chemical_formula_sum   'Zr1 Mo2 O8'
_cell_volume   736.18836810
_cell_formula_units_Z   1
loop_
 _symmetry_equiv_pos_site_id
 _symmetry_equiv_pos_as_xyz
  1  'x, y, z'
loop_
 _atom_site_type_symbol
 _atom_site_label
 _atom_site_symmetry_multiplicity
 _atom_site_fract_x
 _atom_site_fract_y
 _atom_site_fract_z
 _atom_site_occupancy
  Zr  Zr1  1  -0.000000  0.000000  0.500000  1
  Mo  Mo2  1  0.332613  0.667387  0.532730  1
  Mo  Mo3  1  0.667387  0.332613  0.467270  1
  O  O4  1  0.666444  0.833322  0.552619  1
  O  O5  1  0.833322  0.666444  0.447381  1
  O  O6  1  0.333556  0.166678  0.447381  1
  O  O7  1  0.833924  0.166076  0.446839  1
  O  O8  1  0.166076  0.833924  0.553161  1
  O  O9  1  0.331602  0.668398  0.455768  1
  O  O10  1  0.668398  0.331602  0.544232  1
  O  O11  1  0.166678  0.333556  0.552619  1
