# generated using pymatgen
data_Ca2CoO3
_symmetry_space_group_name_H-M   'P 1'
_cell_length_a   3.24251840
_cell_length_b   3.24251821
_cell_length_c   24.41775500
_cell_angle_alpha   90.00000000
_cell_angle_beta   90.00000000
_cell_angle_gamma   89.99551937
_symmetry_Int_Tables_number   1
_chemical_formula_structural   Ca2CoO3
_chemical_formula_sum   'Ca2 Co1 O3'
_cell_volume   256.72644298
_cell_formula_units_Z   1
loop_
 _symmetry_equiv_pos_site_id
 _symmetry_equiv_pos_as_xyz
  1  'x, y, z'
loop_
 _atom_site_type_symbol
 _atom_site_label
 _atom_site_symmetry_multiplicity
 _atom_site_fract_x
 _atom_site_fract_y
 _atom_site_fract_z
 _atom_site_occupancy
  Ca  Ca1  1  0.369231  0.369231  0.407775  1
  Ca  Ca2  1  0.370996  0.370996  0.592225  1
  Co  Co3  1  0.871281  0.871281  0.500000  1
  O  O4  1  0.869244  0.869244  0.409972  1
  O  O5  1  0.870957  0.870957  0.590029  1
  O  O6  1  0.368928  0.368928  0.500000  1
