# generated using pymatgen
data_TlFeS2
_symmetry_space_group_name_H-M   'P 1'
_cell_length_a   5.08243996
_cell_length_b   6.07439092
_cell_length_c   24.34491000
_cell_angle_alpha   90.00000000
_cell_angle_beta   90.00000000
_cell_angle_gamma   114.73044467
_symmetry_Int_Tables_number   1
_chemical_formula_structural   TlFeS2
_chemical_formula_sum   'Tl2 Fe2 S4'
_cell_volume   682.66210185
_cell_formula_units_Z   2
loop_
 _symmetry_equiv_pos_site_id
 _symmetry_equiv_pos_as_xyz
  1  'x, y, z'
loop_
 _atom_site_type_symbol
 _atom_site_label
 _atom_site_symmetry_multiplicity
 _atom_site_fract_x
 _atom_site_fract_y
 _atom_site_fract_z
 _atom_site_occupancy
  Tl  Tl1  1  0.729061  0.458123  0.410935  1
  Tl  Tl2  1  0.200137  0.400273  0.589065  1
  Fe  Fe3  1  0.213184  0.929198  0.500000  1
  Fe  Fe4  1  0.716014  0.929198  0.500000  1
  S  S5  1  0.315307  0.630615  0.480685  1
  S  S6  1  0.613891  0.227781  0.519315  1
  S  S7  1  0.921699  0.843400  0.567827  1
  S  S8  1  0.007499  0.014996  0.432173  1
