# generated using pymatgen
data_V2CoO6
_symmetry_space_group_name_H-M   'P 1'
_cell_length_a   3.66395691
_cell_length_b   7.64569795
_cell_length_c   24.94741900
_cell_angle_alpha   90.00000000
_cell_angle_beta   90.00000000
_cell_angle_gamma   76.13653245
_symmetry_Int_Tables_number   1
_chemical_formula_structural   V2CoO6
_chemical_formula_sum   'V2 Co1 O6'
_cell_volume   678.50640828
_cell_formula_units_Z   1
loop_
 _symmetry_equiv_pos_site_id
 _symmetry_equiv_pos_as_xyz
  1  'x, y, z'
loop_
 _atom_site_type_symbol
 _atom_site_label
 _atom_site_symmetry_multiplicity
 _atom_site_fract_x
 _atom_site_fract_y
 _atom_site_fract_z
 _atom_site_occupancy
  V  V1  1  0.027769  0.944462  0.542235  1
  V  V2  1  0.436906  0.126188  0.457765  1
  Co  Co3  1  0.232337  0.535325  0.500000  1
  O  O4  1  0.148310  0.703379  0.549736  1
  O  O5  1  0.316365  0.367271  0.450264  1
  O  O6  1  0.977375  0.045250  0.599459  1
  O  O7  1  0.487299  0.025401  0.400541  1
  O  O8  1  0.522995  0.954010  0.518573  1
  O  O9  1  0.941680  0.116641  0.481427  1
