# generated using pymatgen
data_LiCo7O7F
_symmetry_space_group_name_H-M   'P 1'
_cell_length_a   3.27084144
_cell_length_b   3.27084160
_cell_length_c   60.13917700
_cell_angle_alpha   90.00000000
_cell_angle_beta   90.00000000
_cell_angle_gamma   119.99999841
_symmetry_Int_Tables_number   1
_chemical_formula_structural   LiCo7O7F
_chemical_formula_sum   'Li1 Co7 O7 F1'
_cell_volume   557.19488737
_cell_formula_units_Z   1
loop_
 _symmetry_equiv_pos_site_id
 _symmetry_equiv_pos_as_xyz
  1  'x, y, z'
loop_
 _atom_site_type_symbol
 _atom_site_label
 _atom_site_symmetry_multiplicity
 _atom_site_fract_x
 _atom_site_fract_y
 _atom_site_fract_z
 _atom_site_occupancy
  Li  Li1  1  0.666667  0.333333  0.334078  1
  Co  Co2  1  0.666667  0.333333  0.505195  1
  Co  Co3  1  0.666667  0.333333  0.592305  1
  Co  Co4  1  0.666667  0.333333  0.418198  1
  Co  Co5  1  0.000000  -0.000000  0.548664  1
  Co  Co6  1  0.000000  0.000000  0.374727  1
  Co  Co7  1  0.000000  0.000000  0.461714  1
  Co  Co8  1  0.000000  0.000000  0.636839  1
  O  O9  1  0.666667  0.333333  0.625229  1
  O  O10  1  0.666667  0.333333  0.538148  1
  O  O11  1  0.666667  0.333333  0.363715  1
  O  O12  1  0.666667  0.333333  0.451180  1
  O  O13  1  0.000000  0.000000  0.494676  1
  O  O14  1  0.000000  0.000000  0.581626  1
  O  O15  1  0.000000  0.000000  0.407665  1
  F  F16  1  0.000000  -0.000000  0.666039  1
