# generated using pymatgen
data_ZnH2SeO4
_symmetry_space_group_name_H-M   'P 1'
_cell_length_a   4.81004747
_cell_length_b   5.72884970
_cell_length_c   23.94527900
_cell_angle_alpha   90.00000000
_cell_angle_beta   90.00000000
_cell_angle_gamma   92.91713127
_symmetry_Int_Tables_number   1
_chemical_formula_structural   ZnH2SeO4
_chemical_formula_sum   'Zn2 H4 Se2 O8'
_cell_volume   658.98201531
_cell_formula_units_Z   2
loop_
 _symmetry_equiv_pos_site_id
 _symmetry_equiv_pos_as_xyz
  1  'x, y, z'
loop_
 _atom_site_type_symbol
 _atom_site_label
 _atom_site_symmetry_multiplicity
 _atom_site_fract_x
 _atom_site_fract_y
 _atom_site_fract_z
 _atom_site_occupancy
  Zn  Zn1  1  0.305990  0.627297  0.489015  1
  Zn  Zn2  1  0.805990  0.127297  0.510985  1
  H  H3  1  0.175503  0.961329  0.575878  1
  H  H4  1  0.675503  0.461329  0.424122  1
  H  H5  1  0.266822  0.230547  0.568445  1
  H  H6  1  0.766822  0.730547  0.431555  1
  Se  Se7  1  0.228140  0.120477  0.417431  1
  Se  Se8  1  0.728140  0.620477  0.582569  1
  O  O9  1  0.089149  0.335537  0.460403  1
  O  O10  1  0.589149  0.835538  0.539597  1
  O  O11  1  0.578619  0.386291  0.544074  1
  O  O12  1  0.078619  0.886291  0.455926  1
  O  O13  1  0.069872  0.631718  0.564865  1
  O  O14  1  0.569872  0.131718  0.435135  1
  O  O15  1  0.604137  0.620078  0.424068  1
  O  O16  1  0.104137  0.120078  0.575932  1
