# generated using pymatgen
data_USe2O7
_symmetry_space_group_name_H-M   'P 1'
_cell_length_a   6.74134450
_cell_length_b   9.48050297
_cell_length_c   24.32450000
_cell_angle_alpha   90.00000000
_cell_angle_beta   90.00000000
_cell_angle_gamma   85.69369166
_symmetry_Int_Tables_number   1
_chemical_formula_structural   USe2O7
_chemical_formula_sum   'U2 Se4 O14'
_cell_volume   1550.22243863
_cell_formula_units_Z   2
loop_
 _symmetry_equiv_pos_site_id
 _symmetry_equiv_pos_as_xyz
  1  'x, y, z'
loop_
 _atom_site_type_symbol
 _atom_site_label
 _atom_site_symmetry_multiplicity
 _atom_site_fract_x
 _atom_site_fract_y
 _atom_site_fract_z
 _atom_site_occupancy
  U  U1  1  0.229098  0.285499  0.501869  1
  U  U2  1  0.938445  0.678842  0.501596  1
  Se  Se3  1  0.856501  0.051028  0.447193  1
  Se  Se4  1  0.311260  0.915109  0.446513  1
  Se  Se5  1  0.719927  0.336164  0.551319  1
  Se  Se6  1  0.444802  0.628460  0.551227  1
  O  O7  1  0.786138  0.902208  0.476866  1
  O  O8  1  0.381932  0.062517  0.477267  1
  O  O9  1  0.909732  0.426318  0.523891  1
  O  O10  1  0.257629  0.538070  0.522357  1
  O  O11  1  0.597406  0.646691  0.496935  1
  O  O12  1  0.570703  0.318945  0.496183  1
  O  O13  1  0.910266  0.716714  0.574212  1
  O  O14  1  0.973217  0.638975  0.429752  1
  O  O15  1  0.189199  0.323432  0.430005  1
  O  O16  1  0.263677  0.248931  0.574356  1
  O  O17  1  0.581464  0.482360  0.587870  1
  O  O18  1  0.083684  0.983826  0.410180  1
  O  O19  1  0.209979  0.826328  0.499565  1
  O  O20  1  0.958329  0.137395  0.500845  1
