# generated using pymatgen
data_PbSeO4
_symmetry_space_group_name_H-M   'P 1'
_cell_length_a   7.28585633
_cell_length_b   8.91099429
_cell_length_c   24.14579600
_cell_angle_alpha   90.00000000
_cell_angle_beta   90.00000000
_cell_angle_gamma   90.00000000
_symmetry_Int_Tables_number   1
_chemical_formula_structural   PbSeO4
_chemical_formula_sum   'Pb4 Se4 O16'
_cell_volume   1567.64707189
_cell_formula_units_Z   4
loop_
 _symmetry_equiv_pos_site_id
 _symmetry_equiv_pos_as_xyz
  1  'x, y, z'
loop_
 _atom_site_type_symbol
 _atom_site_label
 _atom_site_symmetry_multiplicity
 _atom_site_fract_x
 _atom_site_fract_y
 _atom_site_fract_z
 _atom_site_occupancy
  Pb  Pb1  1  0.656006  0.566556  0.435602  1
  Pb  Pb2  1  0.156006  0.933444  0.564398  1
  Pb  Pb3  1  0.343994  0.433444  0.564398  1
  Pb  Pb4  1  0.843994  0.066556  0.435602  1
  Se  Se5  1  0.669355  0.787105  0.544717  1
  Se  Se6  1  0.169355  0.712895  0.455283  1
  Se  Se7  1  0.330645  0.212895  0.455283  1
  Se  Se8  1  0.830645  0.287105  0.544717  1
  O  O9  1  0.704281  0.839622  0.477978  1
  O  O10  1  0.204281  0.660378  0.522022  1
  O  O11  1  0.295719  0.160378  0.522022  1
  O  O12  1  0.795719  0.339622  0.477978  1
  O  O13  1  0.614871  0.601753  0.533130  1
  O  O14  1  0.114871  0.898247  0.466870  1
  O  O15  1  0.385129  0.398247  0.466870  1
  O  O16  1  0.885129  0.101753  0.533130  1
  O  O17  1  0.004093  0.374727  0.574484  1
  O  O18  1  0.504093  0.125273  0.425516  1
  O  O19  1  0.995907  0.625273  0.425516  1
  O  O20  1  0.495907  0.874727  0.574484  1
  O  O21  1  0.641963  0.294129  0.582526  1
  O  O22  1  0.141963  0.205871  0.417474  1
  O  O23  1  0.358037  0.705871  0.417474  1
  O  O24  1  0.858037  0.794129  0.582526  1
