# generated using pymatgen
data_MnBiSe2I
_symmetry_space_group_name_H-M   'P 1'
_cell_length_a   3.99046803
_cell_length_b   10.60073065
_cell_length_c   24.46442610
_cell_angle_alpha   90.12175905
_cell_angle_beta   90.00000000
_cell_angle_gamma   90.00000000
_symmetry_Int_Tables_number   1
_chemical_formula_structural   MnBiSe2I
_chemical_formula_sum   'Mn2 Bi2 Se4 I2'
_cell_volume   1034.88880107
_cell_formula_units_Z   2
loop_
 _symmetry_equiv_pos_site_id
 _symmetry_equiv_pos_as_xyz
  1  'x, y, z'
loop_
 _atom_site_type_symbol
 _atom_site_label
 _atom_site_symmetry_multiplicity
 _atom_site_fract_x
 _atom_site_fract_y
 _atom_site_fract_z
 _atom_site_occupancy
  Mn  Mn1  1  -0.000000  0.956685  0.500000  1
  Mn  Mn2  1  -0.000000  0.456685  0.500000  1
  Bi  Bi3  1  0.500000  0.153182  0.396745  1
  Bi  Bi4  1  0.500000  0.760188  0.603255  1
  Se  Se5  1  -0.000000  0.702553  0.528783  1
  Se  Se6  1  0.500000  0.913807  0.426144  1
  Se  Se7  1  0.000000  0.210817  0.471217  1
  Se  Se8  1  0.500000  -0.000437  0.573856  1
  I  I9  1  0.500000  0.523739  0.421541  1
  I  I10  1  0.500000  0.389631  0.578459  1
