# generated using pymatgen
data_VINCl3
_symmetry_space_group_name_H-M   'P 1'
_cell_length_a   5.87635316
_cell_length_b   7.63324648
_cell_length_c   25.74352100
_cell_angle_alpha   90.00000000
_cell_angle_beta   90.00000000
_cell_angle_gamma   71.06985716
_symmetry_Int_Tables_number   1
_chemical_formula_structural   VINCl3
_chemical_formula_sum   'V2 I2 N2 Cl6'
_cell_volume   1092.28796668
_cell_formula_units_Z   2
loop_
 _symmetry_equiv_pos_site_id
 _symmetry_equiv_pos_as_xyz
  1  'x, y, z'
loop_
 _atom_site_type_symbol
 _atom_site_label
 _atom_site_symmetry_multiplicity
 _atom_site_fract_x
 _atom_site_fract_y
 _atom_site_fract_z
 _atom_site_occupancy
  V  V1  1  0.737267  0.552444  0.456564  1
  V  V2  1  0.262733  0.447556  0.543436  1
  I  I3  1  0.750826  0.987777  0.407780  1
  I  I4  1  0.249174  0.012223  0.592220  1
  N  N5  1  0.769308  0.731994  0.426060  1
  N  N6  1  0.230692  0.268006  0.573940  1
  Cl  Cl7  1  0.652373  0.297400  0.519921  1
  Cl  Cl8  1  0.678349  0.388560  0.387744  1
  Cl  Cl9  1  0.347627  0.702600  0.480079  1
  Cl  Cl10  1  0.858430  0.653059  0.539350  1
  Cl  Cl11  1  0.321651  0.611440  0.612256  1
  Cl  Cl12  1  0.141570  0.346941  0.460650  1
