# generated using pymatgen
data_CuMoF6
_symmetry_space_group_name_H-M   'P 1'
_cell_length_a   5.04587224
_cell_length_b   5.42689196
_cell_length_c   23.68512100
_cell_angle_alpha   90.00000000
_cell_angle_beta   90.00000000
_cell_angle_gamma   89.70129897
_symmetry_Int_Tables_number   1
_chemical_formula_structural   CuMoF6
_chemical_formula_sum   'Cu1 Mo1 F6'
_cell_volume   648.57041143
_cell_formula_units_Z   1
loop_
 _symmetry_equiv_pos_site_id
 _symmetry_equiv_pos_as_xyz
  1  'x, y, z'
loop_
 _atom_site_type_symbol
 _atom_site_label
 _atom_site_symmetry_multiplicity
 _atom_site_fract_x
 _atom_site_fract_y
 _atom_site_fract_z
 _atom_site_occupancy
  Cu  Cu1  1  0.000000  0.000000  0.500000  1
  Mo  Mo2  1  0.500000  0.500000  0.500000  1
  F  F3  1  0.683688  0.183786  0.522112  1
  F  F4  1  0.316312  0.816214  0.477888  1
  F  F5  1  0.372881  0.534648  0.575679  1
  F  F6  1  0.627119  0.465352  0.424321  1
  F  F7  1  0.174984  0.297910  0.478277  1
  F  F8  1  0.825016  0.702090  0.521723  1
