# generated using pymatgen
data_GeTe
_symmetry_space_group_name_H-M   'P 1'
_cell_length_a   4.23944917
_cell_length_b   4.42988586
_cell_length_c   23.02727000
_cell_angle_alpha   90.00000000
_cell_angle_beta   90.00000000
_cell_angle_gamma   90.00000000
_symmetry_Int_Tables_number   1
_chemical_formula_structural   GeTe
_chemical_formula_sum   'Ge2 Te2'
_cell_volume   432.45848457
_cell_formula_units_Z   2
loop_
 _symmetry_equiv_pos_site_id
 _symmetry_equiv_pos_as_xyz
  1  'x, y, z'
loop_
 _atom_site_type_symbol
 _atom_site_label
 _atom_site_symmetry_multiplicity
 _atom_site_fract_x
 _atom_site_fract_y
 _atom_site_fract_z
 _atom_site_occupancy
  Ge  Ge1  1  -0.000000  0.408378  0.446844  1
  Ge  Ge2  1  0.500000  0.908377  0.553156  1
  Te  Te3  1  0.000000  0.477579  0.565542  1
  Te  Te4  1  0.500000  0.977579  0.434458  1
