# generated using pymatgen
data_VMoO5
_symmetry_space_group_name_H-M   'P 1'
_cell_length_a   6.68713177
_cell_length_b   6.68713177
_cell_length_c   26.33550200
_cell_angle_alpha   90.00000000
_cell_angle_beta   90.00000000
_cell_angle_gamma   90.00000000
_symmetry_Int_Tables_number   1
_chemical_formula_structural   VMoO5
_chemical_formula_sum   'V2 Mo2 O10'
_cell_volume   1177.66390233
_cell_formula_units_Z   2
loop_
 _symmetry_equiv_pos_site_id
 _symmetry_equiv_pos_as_xyz
  1  'x, y, z'
loop_
 _atom_site_type_symbol
 _atom_site_label
 _atom_site_symmetry_multiplicity
 _atom_site_fract_x
 _atom_site_fract_y
 _atom_site_fract_z
 _atom_site_occupancy
  V  V1  1  -0.000000  0.500000  0.437917  1
  V  V2  1  0.500000  -0.000000  0.562083  1
  Mo  Mo3  1  0.500000  0.500000  0.500000  1
  Mo  Mo4  1  0.000000  -0.000000  0.500000  1
  O  O5  1  0.283426  0.538374  0.460915  1
  O  O6  1  0.038374  0.216574  0.460915  1
  O  O7  1  0.961626  0.783426  0.460915  1
  O  O8  1  0.716574  0.461626  0.460915  1
  O  O9  1  0.000000  0.500000  0.377025  1
  O  O10  1  0.500000  0.000000  0.622975  1
  O  O11  1  0.783426  0.038374  0.539085  1
  O  O12  1  0.538374  0.716574  0.539085  1
  O  O13  1  0.461626  0.283426  0.539085  1
  O  O14  1  0.216574  0.961626  0.539085  1
