# generated using pymatgen
data_Fe3P2(HO)16
_symmetry_space_group_name_H-M   'P 1'
_cell_length_a   4.73276007
_cell_length_b   10.19088385
_cell_length_c   27.06716053
_cell_angle_alpha   90.00000000
_cell_angle_beta   90.00000000
_cell_angle_gamma   103.04016194
_symmetry_Int_Tables_number   1
_chemical_formula_structural   Fe3P2(HO)16
_chemical_formula_sum   'Fe3 P2 H16 O16'
_cell_volume   1271.81100248
_cell_formula_units_Z   1
loop_
 _symmetry_equiv_pos_site_id
 _symmetry_equiv_pos_as_xyz
  1  'x, y, z'
loop_
 _atom_site_type_symbol
 _atom_site_label
 _atom_site_symmetry_multiplicity
 _atom_site_fract_x
 _atom_site_fract_y
 _atom_site_fract_z
 _atom_site_occupancy
  Fe  Fe1  1  0.500000  -0.000000  0.500000  1
  Fe  Fe2  1  -0.000000  0.500000  0.445071  1
  Fe  Fe3  1  -0.000000  0.500000  0.554929  1
  P  P4  1  0.576492  0.686665  0.500000  1
  P  P5  1  0.423508  0.313335  0.500000  1
  H  H6  1  0.738878  0.189488  0.562307  1
  H  H7  1  0.261122  0.810512  0.562307  1
  H  H8  1  0.261122  0.810512  0.437693  1
  H  H9  1  0.738878  0.189488  0.437693  1
  H  H10  1  0.990655  0.124459  0.543232  1
  H  H11  1  0.009346  0.875541  0.543232  1
  H  H12  1  0.009346  0.875541  0.456768  1
  H  H13  1  0.990655  0.124459  0.456768  1
  H  H14  1  0.631752  0.629806  0.591622  1
  H  H15  1  0.368248  0.370194  0.591622  1
  H  H16  1  0.368248  0.370194  0.408378  1
  H  H17  1  0.631752  0.629806  0.408378  1
  H  H18  1  0.738975  0.566152  0.641147  1
  H  H19  1  0.261025  0.433848  0.641147  1
  H  H20  1  0.261025  0.433848  0.358853  1
  H  H21  1  0.738975  0.566152  0.358853  1
  O  O22  1  0.714378  0.839837  0.500000  1
  O  O23  1  0.285622  0.160163  0.500000  1
  O  O24  1  0.822375  0.609159  0.500000  1
  O  O25  1  0.177626  0.390842  0.500000  1
  O  O26  1  0.391050  0.650897  0.451853  1
  O  O27  1  0.608951  0.349103  0.451853  1
  O  O28  1  0.608951  0.349103  0.548147  1
  O  O29  1  0.391050  0.650897  0.548147  1
  O  O30  1  0.207082  0.898005  0.557788  1
  O  O31  1  0.792919  0.101995  0.557788  1
  O  O32  1  0.792919  0.101995  0.442212  1
  O  O33  1  0.207082  0.898005  0.442212  1
  O  O34  1  0.803400  0.607569  0.609534  1
  O  O35  1  0.196600  0.392431  0.609534  1
  O  O36  1  0.196600  0.392431  0.390466  1
  O  O37  1  0.803400  0.607569  0.390466  1
