# generated using pymatgen
data_Sr2Cu(BiO3)2
_symmetry_space_group_name_H-M   'P 1'
_cell_length_a   5.11419663
_cell_length_b   5.47282127
_cell_length_c   29.02988067
_cell_angle_alpha   90.00000000
_cell_angle_beta   90.00000000
_cell_angle_gamma   90.00000000
_symmetry_Int_Tables_number   1
_chemical_formula_structural   Sr2Cu(BiO3)2
_chemical_formula_sum   'Sr4 Cu2 Bi4 O12'
_cell_volume   812.51977136
_cell_formula_units_Z   2
loop_
 _symmetry_equiv_pos_site_id
 _symmetry_equiv_pos_as_xyz
  1  'x, y, z'
loop_
 _atom_site_type_symbol
 _atom_site_label
 _atom_site_symmetry_multiplicity
 _atom_site_fract_x
 _atom_site_fract_y
 _atom_site_fract_z
 _atom_site_occupancy
  Sr  Sr1  1  0.500000  0.003164  0.438343  1
  Sr  Sr2  1  0.000000  0.503164  0.561657  1
  Sr  Sr3  1  0.000000  0.496836  0.438343  1
  Sr  Sr4  1  0.500000  0.996836  0.561657  1
  Cu  Cu5  1  0.000000  0.000000  0.500000  1
  Cu  Cu6  1  0.500000  0.500000  0.500000  1
  Bi  Bi7  1  0.000000  0.977026  0.338304  1
  Bi  Bi8  1  0.500000  0.522974  0.338304  1
  Bi  Bi9  1  0.500000  0.477026  0.661696  1
  Bi  Bi10  1  0.000000  0.022974  0.661696  1
  O  O11  1  0.250000  0.250000  0.501182  1
  O  O12  1  0.750000  0.250000  0.501182  1
  O  O13  1  0.500000  0.918360  0.342409  1
  O  O14  1  0.000000  0.021042  0.408760  1
  O  O15  1  0.500000  0.478958  0.408760  1
  O  O16  1  0.000000  0.581640  0.342409  1
  O  O17  1  0.000000  0.978958  0.591240  1
  O  O18  1  0.250000  0.750000  0.498818  1
  O  O19  1  0.750000  0.750000  0.498818  1
  O  O20  1  0.000000  0.418360  0.657591  1
  O  O21  1  0.500000  0.521041  0.591240  1
  O  O22  1  0.500000  0.081640  0.657591  1
