# generated using pymatgen
data_Ca5Ir
_symmetry_space_group_name_H-M   'P 1'
_cell_length_a   6.79066775
_cell_length_b   7.54190217
_cell_length_c   25.78836000
_cell_angle_alpha   90.00000000
_cell_angle_beta   90.00000000
_cell_angle_gamma   90.00000000
_symmetry_Int_Tables_number   1
_chemical_formula_structural   Ca5Ir
_chemical_formula_sum   'Ca10 Ir2'
_cell_volume   1320.73930008
_cell_formula_units_Z   2
loop_
 _symmetry_equiv_pos_site_id
 _symmetry_equiv_pos_as_xyz
  1  'x, y, z'
loop_
 _atom_site_type_symbol
 _atom_site_label
 _atom_site_symmetry_multiplicity
 _atom_site_fract_x
 _atom_site_fract_y
 _atom_site_fract_z
 _atom_site_occupancy
  Ca  Ca1  1  0.402984  0.095696  0.500000  1
  Ca  Ca2  1  0.072865  0.463253  0.436471  1
  Ca  Ca3  1  0.601933  0.309028  0.392951  1
  Ca  Ca4  1  0.597016  0.595696  0.500000  1
  Ca  Ca5  1  0.072865  0.463253  0.563529  1
  Ca  Ca6  1  0.398067  0.809028  0.392951  1
  Ca  Ca7  1  0.927135  0.963253  0.563529  1
  Ca  Ca8  1  0.398067  0.809028  0.607049  1
  Ca  Ca9  1  0.601933  0.309028  0.607049  1
  Ca  Ca10  1  0.927135  0.963253  0.436471  1
  Ir  Ir11  1  0.787096  0.261090  0.500000  1
  Ir  Ir12  1  0.212904  0.761090  0.500000  1
