# generated using pymatgen
data_Rb3Mn2Cl7
_symmetry_space_group_name_H-M   'P 1'
_cell_length_a   4.79435328
_cell_length_b   4.79435328
_cell_length_c   30.48603088
_cell_angle_alpha   90.00000000
_cell_angle_beta   90.00000000
_cell_angle_gamma   90.00000000
_symmetry_Int_Tables_number   1
_chemical_formula_structural   Rb3Mn2Cl7
_chemical_formula_sum   'Rb3 Mn2 Cl7'
_cell_volume   700.74652117
_cell_formula_units_Z   1
loop_
 _symmetry_equiv_pos_site_id
 _symmetry_equiv_pos_as_xyz
  1  'x, y, z'
loop_
 _atom_site_type_symbol
 _atom_site_label
 _atom_site_symmetry_multiplicity
 _atom_site_fract_x
 _atom_site_fract_y
 _atom_site_fract_z
 _atom_site_occupancy
  Rb  Rb1  1  0.500000  0.500000  0.311575  1
  Rb  Rb2  1  0.500000  0.500000  0.688425  1
  Rb  Rb3  1  -0.000000  0.000000  0.500000  1
  Mn  Mn4  1  0.000000  -0.000000  0.628375  1
  Mn  Mn5  1  -0.000000  0.000000  0.371625  1
  Cl  Cl6  1  -0.000000  0.000000  0.292759  1
  Cl  Cl7  1  0.500000  -0.000000  0.388345  1
  Cl  Cl8  1  -0.000000  0.500000  0.611655  1
  Cl  Cl9  1  0.500000  0.000000  0.611655  1
  Cl  Cl10  1  0.000000  -0.000000  0.707241  1
  Cl  Cl11  1  0.500000  0.500000  0.500000  1
  Cl  Cl12  1  0.000000  0.500000  0.388345  1
