# generated using pymatgen
data_SrCu
_symmetry_space_group_name_H-M   'P 1'
_cell_length_a   4.28495645
_cell_length_b   4.28495660
_cell_length_c   24.00079800
_cell_angle_alpha   90.00000000
_cell_angle_beta   90.00000000
_cell_angle_gamma   119.99999874
_symmetry_Int_Tables_number   1
_chemical_formula_structural   SrCu
_chemical_formula_sum   'Sr2 Cu2'
_cell_volume   381.63584531
_cell_formula_units_Z   2
loop_
 _symmetry_equiv_pos_site_id
 _symmetry_equiv_pos_as_xyz
  1  'x, y, z'
loop_
 _atom_site_type_symbol
 _atom_site_label
 _atom_site_symmetry_multiplicity
 _atom_site_fract_x
 _atom_site_fract_y
 _atom_site_fract_z
 _atom_site_occupancy
  Sr  Sr1  1  -0.000000  0.000000  0.583312  1
  Sr  Sr2  1  -0.000000  0.000000  0.416688  1
  Cu  Cu3  1  0.333333  0.666667  0.500000  1
  Cu  Cu4  1  0.666667  0.333333  0.500000  1
