# generated using pymatgen
data_NiP2
_symmetry_space_group_name_H-M   'P 1'
_cell_length_a   5.56706473
_cell_length_b   5.56929089
_cell_length_c   19.06483369
_cell_angle_alpha   89.95958461
_cell_angle_beta   90.00000000
_cell_angle_gamma   90.00000000
_symmetry_Int_Tables_number   1
_chemical_formula_structural   NiP2
_chemical_formula_sum   'Ni2 P4'
_cell_volume   591.09745117
_cell_formula_units_Z   2
loop_
 _symmetry_equiv_pos_site_id
 _symmetry_equiv_pos_as_xyz
  1  'x, y, z'
loop_
 _atom_site_type_symbol
 _atom_site_label
 _atom_site_symmetry_multiplicity
 _atom_site_fract_x
 _atom_site_fract_y
 _atom_site_fract_z
 _atom_site_occupancy
  Ni  Ni1  1  0.000000  0.000000  0.500000  1
  Ni  Ni2  1  0.500000  0.500000  0.500000  1
  P  P3  1  0.367124  0.133022  0.501381  1
  P  P4  1  0.867124  0.366978  0.498619  1
  P  P5  1  0.132876  0.633022  0.501381  1
  P  P6  1  0.632876  0.866978  0.498619  1
