# generated using pymatgen
data_Hf3(Al2C3)2
_symmetry_space_group_name_H-M   'P 1'
_cell_length_a   3.30632152
_cell_length_b   3.30632126
_cell_length_c   34.67466816
_cell_angle_alpha   90.00000000
_cell_angle_beta   90.00000000
_cell_angle_gamma   60.00000719
_symmetry_Int_Tables_number   1
_chemical_formula_structural   Hf3(Al2C3)2
_chemical_formula_sum   'Hf3 Al4 C6'
_cell_volume   328.27144733
_cell_formula_units_Z   1
loop_
 _symmetry_equiv_pos_site_id
 _symmetry_equiv_pos_as_xyz
  1  'x, y, z'
loop_
 _atom_site_type_symbol
 _atom_site_label
 _atom_site_symmetry_multiplicity
 _atom_site_fract_x
 _atom_site_fract_y
 _atom_site_fract_z
 _atom_site_occupancy
  Hf  Hf1  1  0.333333  0.333333  0.422734  1
  Hf  Hf2  1  0.666667  0.666667  0.577266  1
  Hf  Hf3  1  0.000000  0.000000  0.500000  1
  Al  Al4  1  0.666667  0.666667  0.355974  1
  Al  Al5  1  0.000000  0.000000  0.291849  1
  Al  Al6  1  0.333333  0.333333  0.644026  1
  Al  Al7  1  0.000000  -0.000000  0.708151  1
  C  C8  1  0.666667  0.666667  0.461025  1
  C  C9  1  0.666667  0.666667  0.298962  1
  C  C10  1  0.000000  0.000000  0.617423  1
  C  C11  1  0.333333  0.333333  0.538975  1
  C  C12  1  0.000000  0.000000  0.382577  1
  C  C13  1  0.333333  0.333333  0.701038  1
