# generated using pymatgen
data_Hg2ClO
_symmetry_space_group_name_H-M   'P 1'
_cell_length_a   6.04348568
_cell_length_b   13.34884963
_cell_length_c   23.43969900
_cell_angle_alpha   90.00000000
_cell_angle_beta   90.00000000
_cell_angle_gamma   90.00000000
_symmetry_Int_Tables_number   1
_chemical_formula_structural   Hg2ClO
_chemical_formula_sum   'Hg8 Cl4 O4'
_cell_volume   1890.96446957
_cell_formula_units_Z   4
loop_
 _symmetry_equiv_pos_site_id
 _symmetry_equiv_pos_as_xyz
  1  'x, y, z'
loop_
 _atom_site_type_symbol
 _atom_site_label
 _atom_site_symmetry_multiplicity
 _atom_site_fract_x
 _atom_site_fract_y
 _atom_site_fract_z
 _atom_site_occupancy
  Hg  Hg1  1  0.460044  0.351167  0.517763  1
  Hg  Hg2  1  0.460044  0.148833  0.482237  1
  Hg  Hg3  1  0.539956  0.648833  0.482237  1
  Hg  Hg4  1  0.539956  0.851167  0.517763  1
  Hg  Hg5  1  0.850980  0.250000  0.500000  1
  Hg  Hg6  1  0.149020  0.750000  0.500000  1
  Hg  Hg7  1  0.000000  0.500000  0.500000  1
  Hg  Hg8  1  0.000000  0.000000  0.500000  1
  Cl  Cl9  1  0.538087  0.988326  0.424210  1
  Cl  Cl10  1  0.538087  0.511674  0.575790  1
  Cl  Cl11  1  0.461913  0.011674  0.575790  1
  Cl  Cl12  1  0.461913  0.488326  0.424210  1
  O  O13  1  0.905618  0.637246  0.471896  1
  O  O14  1  0.905618  0.862754  0.528104  1
  O  O15  1  0.094382  0.362754  0.528104  1
  O  O16  1  0.094382  0.137246  0.471896  1
