# generated using pymatgen
data_CuBiO2
_symmetry_space_group_name_H-M   'P 1'
_cell_length_a   3.53229450
_cell_length_b   6.15309904
_cell_length_c   23.49411182
_cell_angle_alpha   89.31477331
_cell_angle_beta   90.00000000
_cell_angle_gamma   90.00000000
_symmetry_Int_Tables_number   1
_chemical_formula_structural   CuBiO2
_chemical_formula_sum   'Cu2 Bi2 O4'
_cell_volume   510.59761627
_cell_formula_units_Z   2
loop_
 _symmetry_equiv_pos_site_id
 _symmetry_equiv_pos_as_xyz
  1  'x, y, z'
loop_
 _atom_site_type_symbol
 _atom_site_label
 _atom_site_symmetry_multiplicity
 _atom_site_fract_x
 _atom_site_fract_y
 _atom_site_fract_z
 _atom_site_occupancy
  Cu  Cu1  1  0.750000  0.008773  0.542703  1
  Cu  Cu2  1  0.250000  0.902718  0.457297  1
  Bi  Bi3  1  0.750000  0.394676  0.432387  1
  Bi  Bi4  1  0.250000  0.516815  0.567613  1
  O  O5  1  0.750000  0.739804  0.577223  1
  O  O6  1  0.250000  0.611641  0.477992  1
  O  O7  1  0.750000  0.299850  0.522007  1
  O  O8  1  0.250000  0.171687  0.422777  1
