# generated using pymatgen
data_BaCuSbO5
_symmetry_space_group_name_H-M   'P 1'
_cell_length_a   3.75967781
_cell_length_b   3.75859296
_cell_length_c   25.76814700
_cell_angle_alpha   90.00000000
_cell_angle_beta   90.00000000
_cell_angle_gamma   89.99907737
_symmetry_Int_Tables_number   1
_chemical_formula_structural   BaCuSbO5
_chemical_formula_sum   'Ba1 Cu1 Sb1 O5'
_cell_volume   364.13222463
_cell_formula_units_Z   1
loop_
 _symmetry_equiv_pos_site_id
 _symmetry_equiv_pos_as_xyz
  1  'x, y, z'
loop_
 _atom_site_type_symbol
 _atom_site_label
 _atom_site_symmetry_multiplicity
 _atom_site_fract_x
 _atom_site_fract_y
 _atom_site_fract_z
 _atom_site_occupancy
  Ba  Ba1  1  -0.000000  -0.000000  0.477488  1
  Cu  Cu2  1  0.500000  0.500000  0.387867  1
  Sb  Sb3  1  0.500000  0.500000  0.591743  1
  O  O4  1  0.500000  0.000000  0.610769  1
  O  O5  1  0.000000  0.500000  0.610623  1
  O  O6  1  0.500000  0.000000  0.402503  1
  O  O7  1  0.000000  0.500000  0.402455  1
  O  O8  1  0.500000  0.500000  0.516552  1
