# generated using pymatgen
data_LaBiSe2O
_symmetry_space_group_name_H-M   'P 1'
_cell_length_a   4.13420835
_cell_length_b   4.13420835
_cell_length_c   31.67653400
_cell_angle_alpha   90.00000000
_cell_angle_beta   90.00000000
_cell_angle_gamma   90.00000000
_symmetry_Int_Tables_number   1
_chemical_formula_structural   LaBiSe2O
_chemical_formula_sum   'La2 Bi2 Se4 O2'
_cell_volume   541.40514086
_cell_formula_units_Z   2
loop_
 _symmetry_equiv_pos_site_id
 _symmetry_equiv_pos_as_xyz
  1  'x, y, z'
loop_
 _atom_site_type_symbol
 _atom_site_label
 _atom_site_symmetry_multiplicity
 _atom_site_fract_x
 _atom_site_fract_y
 _atom_site_fract_z
 _atom_site_occupancy
  La  La1  1  0.500000  -0.000000  0.538698  1
  La  La2  1  -0.000000  0.500000  0.461302  1
  Bi  Bi3  1  0.500000  0.000000  0.329818  1
  Bi  Bi4  1  -0.000000  0.500000  0.670182  1
  Se  Se5  1  0.500000  -0.000000  0.413451  1
  Se  Se6  1  0.000000  0.500000  0.586549  1
  Se  Se7  1  0.500000  0.000000  0.686835  1
  Se  Se8  1  -0.000000  0.500000  0.313165  1
  O  O9  1  -0.000000  0.000000  0.500000  1
  O  O10  1  0.500000  0.500000  0.500000  1
