# generated using pymatgen
data_Cr2O5
_symmetry_space_group_name_H-M   'P 1'
_cell_length_a   3.71718135
_cell_length_b   10.62082182
_cell_length_c   24.13305000
_cell_angle_alpha   90.00000000
_cell_angle_beta   90.00000000
_cell_angle_gamma   90.00000000
_symmetry_Int_Tables_number   1
_chemical_formula_structural   Cr2O5
_chemical_formula_sum   'Cr4 O10'
_cell_volume   952.76124922
_cell_formula_units_Z   2
loop_
 _symmetry_equiv_pos_site_id
 _symmetry_equiv_pos_as_xyz
  1  'x, y, z'
loop_
 _atom_site_type_symbol
 _atom_site_label
 _atom_site_symmetry_multiplicity
 _atom_site_fract_x
 _atom_site_fract_y
 _atom_site_fract_z
 _atom_site_occupancy
  Cr  Cr1  1  -0.000000  0.344581  0.475328  1
  Cr  Cr2  1  0.500000  0.155419  0.524672  1
  Cr  Cr3  1  0.500000  0.844581  0.524672  1
  Cr  Cr4  1  -0.000000  0.655419  0.475328  1
  O  O5  1  0.000000  0.500000  0.505400  1
  O  O6  1  -0.000000  0.343614  0.409589  1
  O  O7  1  0.500000  0.318998  0.493231  1
  O  O8  1  0.000000  0.181002  0.506769  1
  O  O9  1  0.500000  0.156386  0.590411  1
  O  O10  1  0.500000  0.000000  0.494600  1
  O  O11  1  0.500000  0.843614  0.590411  1
  O  O12  1  0.000000  0.656386  0.409589  1
  O  O13  1  0.000000  0.818998  0.506769  1
  O  O14  1  0.500000  0.681002  0.493231  1
