# generated using pymatgen
data_LaCrBiO6
_symmetry_space_group_name_H-M   'P 1'
_cell_length_a   5.76078742
_cell_length_b   6.39592889
_cell_length_c   27.09038400
_cell_angle_alpha   90.00000000
_cell_angle_beta   90.00000000
_cell_angle_gamma   75.72491155
_symmetry_Int_Tables_number   1
_chemical_formula_structural   LaCrBiO6
_chemical_formula_sum   'La2 Cr2 Bi2 O12'
_cell_volume   967.34090453
_cell_formula_units_Z   2
loop_
 _symmetry_equiv_pos_site_id
 _symmetry_equiv_pos_as_xyz
  1  'x, y, z'
loop_
 _atom_site_type_symbol
 _atom_site_label
 _atom_site_symmetry_multiplicity
 _atom_site_fract_x
 _atom_site_fract_y
 _atom_site_fract_z
 _atom_site_occupancy
  La  La1  1  0.996625  0.295692  0.469798  1
  La  La2  1  0.496625  0.795692  0.530202  1
  Cr  Cr3  1  0.428473  0.508797  0.419590  1
  Cr  Cr4  1  0.928473  0.008797  0.580410  1
  Bi  Bi5  1  0.513724  0.993347  0.395689  1
  Bi  Bi6  1  0.013724  0.493347  0.604311  1
  O  O7  1  0.760524  0.820580  0.606257  1
  O  O8  1  0.800125  0.204878  0.619446  1
  O  O9  1  0.690112  0.250460  0.415268  1
  O  O10  1  0.788033  0.041442  0.524809  1
  O  O11  1  0.840696  0.509766  0.536239  1
  O  O12  1  0.671659  0.624830  0.436118  1
  O  O13  1  0.260524  0.320580  0.393743  1
  O  O14  1  0.300125  0.704878  0.380554  1
  O  O15  1  0.190112  0.750460  0.584732  1
  O  O16  1  0.288033  0.541442  0.475191  1
  O  O17  1  0.340696  0.009766  0.463761  1
  O  O18  1  0.171659  0.124830  0.563882  1
