# generated using pymatgen
data_SiP
_symmetry_space_group_name_H-M   'P 1'
_cell_length_a   3.54518903
_cell_length_b   10.47604496
_cell_length_c   24.72907600
_cell_angle_alpha   90.00000000
_cell_angle_beta   90.00000000
_cell_angle_gamma   99.74157335
_symmetry_Int_Tables_number   1
_chemical_formula_structural   SiP
_chemical_formula_sum   'Si6 P6'
_cell_volume   905.18415386
_cell_formula_units_Z   6
loop_
 _symmetry_equiv_pos_site_id
 _symmetry_equiv_pos_as_xyz
  1  'x, y, z'
loop_
 _atom_site_type_symbol
 _atom_site_label
 _atom_site_symmetry_multiplicity
 _atom_site_fract_x
 _atom_site_fract_y
 _atom_site_fract_z
 _atom_site_occupancy
  Si  Si1  1  0.170969  0.341938  0.488117  1
  Si  Si2  1  0.060098  0.120197  0.511863  1
  Si  Si3  1  0.435845  0.871690  0.456612  1
  Si  Si4  1  0.432846  0.865692  0.552189  1
  Si  Si5  1  0.795180  0.590358  0.543398  1
  Si  Si6  1  0.798210  0.596420  0.447825  1
  P  P7  1  0.000073  0.000146  0.432632  1
  P  P8  1  0.230946  0.461890  0.567386  1
  P  P9  1  0.344817  0.689635  0.404104  1
  P  P10  1  0.541607  0.083214  0.569013  1
  P  P11  1  0.689463  0.378925  0.430965  1
  P  P12  1  0.886224  0.772448  0.595898  1
