# generated using pymatgen
data_Ge2Sb2Te5
_symmetry_space_group_name_H-M   'P 1'
_cell_length_a   4.24771935
_cell_length_b   4.24771848
_cell_length_c   35.25309547
_cell_angle_alpha   90.00000000
_cell_angle_beta   90.00000000
_cell_angle_gamma   119.99999904
_symmetry_Int_Tables_number   1
_chemical_formula_structural   Ge2Sb2Te5
_chemical_formula_sum   'Ge2 Sb2 Te5'
_cell_volume   550.85771221
_cell_formula_units_Z   1
loop_
 _symmetry_equiv_pos_site_id
 _symmetry_equiv_pos_as_xyz
  1  'x, y, z'
loop_
 _atom_site_type_symbol
 _atom_site_label
 _atom_site_symmetry_multiplicity
 _atom_site_fract_x
 _atom_site_fract_y
 _atom_site_fract_z
 _atom_site_occupancy
  Ge  Ge1  1  0.000000  0.000000  0.327703  1
  Ge  Ge2  1  0.000000  -0.000000  0.672297  1
  Sb  Sb3  1  0.333333  0.666667  0.441830  1
  Sb  Sb4  1  0.666667  0.333333  0.558170  1
  Te  Te5  1  0.000000  -0.000000  0.500000  1
  Te  Te6  1  0.333333  0.666667  0.608312  1
  Te  Te7  1  0.666667  0.333333  0.391688  1
  Te  Te8  1  0.333333  0.666667  0.287184  1
  Te  Te9  1  0.666667  0.333333  0.712816  1
