# generated using pymatgen
data_BN
_symmetry_space_group_name_H-M   'P 1'
_cell_length_a   4.92891681
_cell_length_b   4.93048272
_cell_length_c   19.99294844
_cell_angle_alpha   89.99994596
_cell_angle_beta   90.00000000
_cell_angle_gamma   90.00000000
_symmetry_Int_Tables_number   1
_chemical_formula_structural   BN
_chemical_formula_sum   'B4 N4'
_cell_volume   485.86741662
_cell_formula_units_Z   4
loop_
 _symmetry_equiv_pos_site_id
 _symmetry_equiv_pos_as_xyz
  1  'x, y, z'
loop_
 _atom_site_type_symbol
 _atom_site_label
 _atom_site_symmetry_multiplicity
 _atom_site_fract_x
 _atom_site_fract_y
 _atom_site_fract_z
 _atom_site_occupancy
  B  B1  1  0.357726  0.142019  0.500057  1
  B  B2  1  0.642274  0.857981  0.499943  1
  B  B3  1  0.857726  0.357981  0.499943  1
  B  B4  1  0.142274  0.642019  0.500057  1
  N  N5  1  0.343203  0.843039  0.500173  1
  N  N6  1  0.156797  0.343039  0.500173  1
  N  N7  1  0.656797  0.156961  0.499827  1
  N  N8  1  0.843203  0.656961  0.499827  1
