# generated using pymatgen
data_VOF3
_symmetry_space_group_name_H-M   'P 1'
_cell_length_a   5.32089418
_cell_length_b   10.28266416
_cell_length_c   23.36827876
_cell_angle_alpha   89.83665029
_cell_angle_beta   89.91694701
_cell_angle_gamma   90.22252606
_symmetry_Int_Tables_number   1
_chemical_formula_structural   VOF3
_chemical_formula_sum   'V4 O4 F12'
_cell_volume   1278.53168130
_cell_formula_units_Z   4
loop_
 _symmetry_equiv_pos_site_id
 _symmetry_equiv_pos_as_xyz
  1  'x, y, z'
loop_
 _atom_site_type_symbol
 _atom_site_label
 _atom_site_symmetry_multiplicity
 _atom_site_fract_x
 _atom_site_fract_y
 _atom_site_fract_z
 _atom_site_occupancy
  V  V1  1  -0.000000  -0.000000  0.500000  1
  V  V2  1  -0.000000  0.500000  0.500000  1
  V  V3  1  0.446824  0.753701  0.500158  1
  V  V4  1  0.553176  0.246299  0.499842  1
  O  O5  1  0.720883  0.105185  0.513986  1
  O  O6  1  0.201620  0.647073  0.513922  1
  O  O7  1  0.798380  0.352927  0.486078  1
  O  O8  1  0.279117  0.894815  0.486014  1
  F  F9  1  0.712685  0.595730  0.516063  1
  F  F10  1  0.006593  0.954791  0.573360  1
  F  F11  1  0.019850  0.455586  0.573238  1
  F  F12  1  0.208985  0.141405  0.515823  1
  F  F13  1  0.516210  0.704890  0.429368  1
  F  F14  1  0.458960  0.212542  0.428787  1
  F  F15  1  0.541040  0.787458  0.571213  1
  F  F16  1  0.483790  0.295110  0.570632  1
  F  F17  1  0.791015  0.858595  0.484177  1
  F  F18  1  0.993407  0.045209  0.426640  1
  F  F19  1  0.980150  0.544414  0.426762  1
  F  F20  1  0.287315  0.404270  0.483937  1
