# generated using pymatgen
data_InS
_symmetry_space_group_name_H-M   'P 1'
_cell_length_a   6.09888250
_cell_length_b   10.48825420
_cell_length_c   19.36829115
_cell_angle_alpha   90.00000000
_cell_angle_beta   90.28317327
_cell_angle_gamma   90.00000000
_symmetry_Int_Tables_number   1
_chemical_formula_structural   InS
_chemical_formula_sum   'In4 S4'
_cell_volume   1238.90918164
_cell_formula_units_Z   4
loop_
 _symmetry_equiv_pos_site_id
 _symmetry_equiv_pos_as_xyz
  1  'x, y, z'
loop_
 _atom_site_type_symbol
 _atom_site_label
 _atom_site_symmetry_multiplicity
 _atom_site_fract_x
 _atom_site_fract_y
 _atom_site_fract_z
 _atom_site_occupancy
  In  In1  1  0.576958  0.125918  0.499037  1
  In  In2  1  0.076958  0.374082  0.499037  1
  In  In3  1  0.408503  0.874082  0.500963  1
  In  In4  1  0.908503  0.625918  0.500963  1
  S  S5  1  0.506319  0.650295  0.502075  1
  S  S6  1  0.979142  0.150295  0.497925  1
  S  S7  1  0.479142  0.349705  0.497925  1
  S  S8  1  0.006319  0.849705  0.502075  1
