# generated using pymatgen
data_Ti2Te2P
_symmetry_space_group_name_H-M   'P 1'
_cell_length_a   3.65333890
_cell_length_b   3.65333895
_cell_length_c   26.27748200
_cell_angle_alpha   90.00000000
_cell_angle_beta   90.00000000
_cell_angle_gamma   60.00000042
_symmetry_Int_Tables_number   1
_chemical_formula_structural   Ti2Te2P
_chemical_formula_sum   'Ti2 Te2 P1'
_cell_volume   303.73462883
_cell_formula_units_Z   1
loop_
 _symmetry_equiv_pos_site_id
 _symmetry_equiv_pos_as_xyz
  1  'x, y, z'
loop_
 _atom_site_type_symbol
 _atom_site_label
 _atom_site_symmetry_multiplicity
 _atom_site_fract_x
 _atom_site_fract_y
 _atom_site_fract_z
 _atom_site_occupancy
  Ti  Ti1  1  0.333333  0.333333  0.449735  1
  Ti  Ti2  1  0.666667  0.666667  0.550265  1
  Te  Te3  1  0.666667  0.666667  0.380197  1
  Te  Te4  1  0.333333  0.333333  0.619803  1
  P  P5  1  0.000000  -0.000000  0.500000  1
