# generated using pymatgen
data_Sr2Co(BrO)2
_symmetry_space_group_name_H-M   'P 1'
_cell_length_a   4.07337228
_cell_length_b   4.07337228
_cell_length_c   25.97733400
_cell_angle_alpha   90.00000000
_cell_angle_beta   90.00000000
_cell_angle_gamma   90.00000000
_symmetry_Int_Tables_number   1
_chemical_formula_structural   Sr2Co(BrO)2
_chemical_formula_sum   'Sr2 Co1 Br2 O2'
_cell_volume   431.02532255
_cell_formula_units_Z   1
loop_
 _symmetry_equiv_pos_site_id
 _symmetry_equiv_pos_as_xyz
  1  'x, y, z'
loop_
 _atom_site_type_symbol
 _atom_site_label
 _atom_site_symmetry_multiplicity
 _atom_site_fract_x
 _atom_site_fract_y
 _atom_site_fract_z
 _atom_site_occupancy
  Sr  Sr1  1  0.000000  -0.000000  0.437039  1
  Sr  Sr2  1  0.000000  -0.000000  0.562961  1
  Co  Co3  1  0.500000  0.500000  0.500000  1
  Br  Br4  1  0.500000  0.500000  0.384973  1
  Br  Br5  1  0.500000  0.500000  0.615027  1
  O  O6  1  0.000000  0.500000  0.500000  1
  O  O7  1  0.500000  -0.000000  0.500000  1
