# generated using pymatgen
data_CrSiTe3
_symmetry_space_group_name_H-M   'P 1'
_cell_length_a   6.83504780
_cell_length_b   6.83504852
_cell_length_c   23.44937600
_cell_angle_alpha   90.00000000
_cell_angle_beta   90.00000000
_cell_angle_gamma   59.99999866
_symmetry_Int_Tables_number   1
_chemical_formula_structural   CrSiTe3
_chemical_formula_sum   'Cr2 Si2 Te6'
_cell_volume   948.73533135
_cell_formula_units_Z   2
loop_
 _symmetry_equiv_pos_site_id
 _symmetry_equiv_pos_as_xyz
  1  'x, y, z'
loop_
 _atom_site_type_symbol
 _atom_site_label
 _atom_site_symmetry_multiplicity
 _atom_site_fract_x
 _atom_site_fract_y
 _atom_site_fract_z
 _atom_site_occupancy
  Cr  Cr1  1  0.000000  0.000000  0.499826  1
  Cr  Cr2  1  0.333333  0.333333  0.500130  1
  Si  Si3  1  0.666667  0.666667  0.548955  1
  Si  Si4  1  0.666667  0.666667  0.451150  1
  Te  Te5  1  0.667206  0.029774  0.573759  1
  Te  Te6  1  0.029774  0.303020  0.573759  1
  Te  Te7  1  0.303020  0.667206  0.573759  1
  Te  Te8  1  0.030206  0.666116  0.426221  1
  Te  Te9  1  0.303679  0.030206  0.426221  1
  Te  Te10  1  0.666116  0.303679  0.426221  1
