# generated using pymatgen
data_SrLaI5
_symmetry_space_group_name_H-M   'P 1'
_cell_length_a   4.59941005
_cell_length_b   17.21407434
_cell_length_c   25.51051256
_cell_angle_alpha   90.10860914
_cell_angle_beta   90.00000000
_cell_angle_gamma   90.00000000
_symmetry_Int_Tables_number   1
_chemical_formula_structural   SrLaI5
_chemical_formula_sum   'Sr2 La2 I10'
_cell_volume   2019.78065526
_cell_formula_units_Z   2
loop_
 _symmetry_equiv_pos_site_id
 _symmetry_equiv_pos_as_xyz
  1  'x, y, z'
loop_
 _atom_site_type_symbol
 _atom_site_label
 _atom_site_symmetry_multiplicity
 _atom_site_fract_x
 _atom_site_fract_y
 _atom_site_fract_z
 _atom_site_occupancy
  Sr  Sr1  1  0.750000  0.125978  0.518858  1
  Sr  Sr2  1  0.250000  0.874022  0.481142  1
  La  La3  1  0.250000  0.366214  0.477134  1
  La  La4  1  0.750000  0.633786  0.522866  1
  I  I5  1  0.250000  0.253693  0.577696  1
  I  I6  1  0.750000  0.985282  0.428971  1
  I  I7  1  0.750000  0.441359  0.552822  1
  I  I8  1  0.250000  0.192486  0.431059  1
  I  I9  1  0.250000  0.619642  0.607558  1
  I  I10  1  0.750000  0.380358  0.392442  1
  I  I11  1  0.750000  0.807514  0.568941  1
  I  I12  1  0.250000  0.558641  0.447178  1
  I  I13  1  0.250000  0.014718  0.571029  1
  I  I14  1  0.750000  0.746307  0.422304  1
