# generated using pymatgen
data_Ta2Se3
_symmetry_space_group_name_H-M   'P 1'
_cell_length_a   3.39170885
_cell_length_b   9.85131922
_cell_length_c   23.76710700
_cell_angle_alpha   90.00000000
_cell_angle_beta   90.00000000
_cell_angle_gamma   90.00000000
_symmetry_Int_Tables_number   1
_chemical_formula_structural   Ta2Se3
_chemical_formula_sum   'Ta4 Se6'
_cell_volume   794.12574922
_cell_formula_units_Z   2
loop_
 _symmetry_equiv_pos_site_id
 _symmetry_equiv_pos_as_xyz
  1  'x, y, z'
loop_
 _atom_site_type_symbol
 _atom_site_label
 _atom_site_symmetry_multiplicity
 _atom_site_fract_x
 _atom_site_fract_y
 _atom_site_fract_z
 _atom_site_occupancy
  Ta  Ta1  1  0.250000  0.552476  0.500202  1
  Ta  Ta2  1  0.750000  0.303091  0.499798  1
  Ta  Ta3  1  0.250000  0.866045  0.539468  1
  Ta  Ta4  1  0.750000  0.989522  0.460532  1
  Se  Se5  1  0.250000  0.367195  0.577620  1
  Se  Se6  1  0.750000  0.488371  0.422380  1
  Se  Se7  1  0.250000  0.178493  0.425824  1
  Se  Se8  1  0.750000  0.677074  0.574176  1
  Se  Se9  1  0.750000  0.057124  0.566835  1
  Se  Se10  1  0.250000  0.798443  0.433165  1
