# generated using pymatgen
data_Al2S3
_symmetry_space_group_name_H-M   'P 1'
_cell_length_a   6.66931974
_cell_length_b   7.01235661
_cell_length_c   38.27714600
_cell_angle_alpha   90.00000000
_cell_angle_beta   90.00000000
_cell_angle_gamma   116.10742247
_symmetry_Int_Tables_number   1
_chemical_formula_structural   Al2S3
_chemical_formula_sum   'Al12 S18'
_cell_volume   1607.48595594
_cell_formula_units_Z   6
loop_
 _symmetry_equiv_pos_site_id
 _symmetry_equiv_pos_as_xyz
  1  'x, y, z'
loop_
 _atom_site_type_symbol
 _atom_site_label
 _atom_site_symmetry_multiplicity
 _atom_site_fract_x
 _atom_site_fract_y
 _atom_site_fract_z
 _atom_site_occupancy
  Al  Al1  1  0.450457  0.646041  0.627150  1
  Al  Al2  1  0.285053  0.769577  0.322529  1
  Al  Al3  1  0.065978  0.856405  0.560174  1
  Al  Al4  1  0.409276  0.158035  0.654000  1
  Al  Al5  1  0.367627  0.691370  0.425158  1
  Al  Al6  1  0.810984  0.499591  0.589495  1
  Al  Al7  1  0.218640  0.287185  0.345070  1
  Al  Al8  1  0.737061  0.923232  0.313340  1
  Al  Al9  1  0.932684  0.234709  0.617990  1
  Al  Al10  1  0.510909  0.159841  0.734228  1
  Al  Al11  1  0.230054  0.387961  0.535525  1
  Al  Al12  1  0.888944  0.825247  0.389733  1
  S  S13  1  0.407666  0.096630  0.360911  1
  S  S14  1  0.390493  0.612606  0.368113  1
  S  S15  1  0.181945  0.100418  0.605913  1
  S  S16  1  0.214004  0.078738  0.702971  1
  S  S17  1  0.514983  0.625598  0.567873  1
  S  S18  1  0.899157  0.679852  0.333418  1
  S  S19  1  0.817064  0.253927  0.755704  1
  S  S20  1  0.185941  0.617782  0.499652  1
  S  S21  1  0.127395  0.069173  0.514431  1
  S  S22  1  0.670170  0.504935  0.647393  1
  S  S23  1  0.708202  0.747887  0.440898  1
  S  S24  1  0.127888  0.514696  0.652711  1
  S  S25  1  0.225072  0.393894  0.289426  1
  S  S26  1  0.261939  0.980287  0.410646  1
  S  S27  1  0.873508  0.121152  0.365963  1
  S  S28  1  0.633582  0.987309  0.648418  1
  S  S29  1  0.060207  0.456553  0.451658  1
  S  S30  1  0.923100  0.148251  0.269505  1
