# generated using pymatgen
data_Ti3H2O7
_symmetry_space_group_name_H-M   'P 1'
_cell_length_a   3.80335732
_cell_length_b   9.44753176
_cell_length_c   27.88181944
_cell_angle_alpha   89.41123032
_cell_angle_beta   90.00000000
_cell_angle_gamma   90.00000000
_symmetry_Int_Tables_number   1
_chemical_formula_structural   Ti3H2O7
_chemical_formula_sum   'Ti6 H4 O14'
_cell_volume   1001.80609479
_cell_formula_units_Z   2
loop_
 _symmetry_equiv_pos_site_id
 _symmetry_equiv_pos_as_xyz
  1  'x, y, z'
loop_
 _atom_site_type_symbol
 _atom_site_label
 _atom_site_symmetry_multiplicity
 _atom_site_fract_x
 _atom_site_fract_y
 _atom_site_fract_z
 _atom_site_occupancy
  Ti  Ti1  1  0.513132  0.736868  0.482674  1
  Ti  Ti2  1  0.013132  0.263132  0.517326  1
  Ti  Ti3  1  0.515514  0.049535  0.457784  1
  Ti  Ti4  1  0.015514  0.950465  0.542216  1
  Ti  Ti5  1  0.514089  0.392128  0.416841  1
  Ti  Ti6  1  0.014089  0.607872  0.583159  1
  H  H7  1  0.571548  0.151702  0.369175  1
  H  H8  1  0.071548  0.848298  0.630825  1
  H  H9  1  0.514023  0.525178  0.539926  1
  H  H10  1  0.014023  0.474822  0.460074  1
  O  O11  1  0.513796  0.571345  0.454440  1
  O  O12  1  0.013796  0.428655  0.545560  1
  O  O13  1  0.513638  0.875058  0.433160  1
  O  O14  1  0.013638  0.124942  0.566840  1
  O  O15  1  0.533525  0.177304  0.402663  1
  O  O16  1  0.033525  0.822696  0.597337  1
  O  O17  1  0.515650  0.444834  0.360762  1
  O  O18  1  0.015650  0.555166  0.639238  1
  O  O19  1  0.514089  0.619916  0.554829  1
  O  O20  1  0.014089  0.380084  0.445171  1
  O  O21  1  0.516333  0.938370  0.524896  1
  O  O22  1  0.016333  0.061629  0.475104  1
  O  O23  1  0.513696  0.240010  0.497939  1
  O  O24  1  0.013696  0.759990  0.502061  1
