# generated using pymatgen
data_Tl2O
_symmetry_space_group_name_H-M   'P 1'
_cell_length_a   3.55173801
_cell_length_b   3.55173771
_cell_length_c   23.25268825
_cell_angle_alpha   89.96086614
_cell_angle_beta   89.96086615
_cell_angle_gamma   60.04132476
_symmetry_Int_Tables_number   1
_chemical_formula_structural   Tl2O
_chemical_formula_sum   'Tl2 O1'
_cell_volume   254.13598923
_cell_formula_units_Z   1
loop_
 _symmetry_equiv_pos_site_id
 _symmetry_equiv_pos_as_xyz
  1  'x, y, z'
loop_
 _atom_site_type_symbol
 _atom_site_label
 _atom_site_symmetry_multiplicity
 _atom_site_fract_x
 _atom_site_fract_y
 _atom_site_fract_z
 _atom_site_occupancy
  Tl  Tl1  1  0.993577  0.993577  0.566085  1
  Tl  Tl2  1  0.327456  0.327456  0.433934  1
  O  O3  1  0.658892  0.658892  0.499980  1
