# generated using pymatgen
data_V2P4S13
_symmetry_space_group_name_H-M   'P 1'
_cell_length_a   9.77193568
_cell_length_b   16.11764839
_cell_length_c   23.12294173
_cell_angle_alpha   90.24540230
_cell_angle_beta   89.81794638
_cell_angle_gamma   101.29561727
_symmetry_Int_Tables_number   1
_chemical_formula_structural   V2P4S13
_chemical_formula_sum   'V4 P8 S26'
_cell_volume   3571.29035627
_cell_formula_units_Z   2
loop_
 _symmetry_equiv_pos_site_id
 _symmetry_equiv_pos_as_xyz
  1  'x, y, z'
loop_
 _atom_site_type_symbol
 _atom_site_label
 _atom_site_symmetry_multiplicity
 _atom_site_fract_x
 _atom_site_fract_y
 _atom_site_fract_z
 _atom_site_occupancy
  V  V1  1  0.611212  0.606842  0.497910  1
  V  V2  1  0.611118  0.106750  0.500325  1
  V  V3  1  0.388788  0.393158  0.502090  1
  V  V4  1  0.388882  0.893250  0.499675  1
  P  P5  1  0.831231  0.261932  0.492766  1
  P  P6  1  0.700992  0.436885  0.527240  1
  P  P7  1  0.168769  0.738068  0.507234  1
  P  P8  1  0.169569  0.238098  0.494558  1
  P  P9  1  0.299269  0.063803  0.527990  1
  P  P10  1  0.700731  0.936197  0.472010  1
  P  P11  1  0.299008  0.563115  0.472760  1
  P  P12  1  0.830431  0.761902  0.505442  1
  S  S13  1  0.108141  0.106589  0.516475  1
  S  S14  1  0.891859  0.893411  0.483525  1
  S  S15  1  0.997637  0.749904  0.562822  1
  S  S16  1  0.390594  0.035275  0.451044  1
  S  S17  1  0.547132  0.354961  0.569184  1
  S  S18  1  0.235492  0.451421  0.433195  1
  S  S19  1  0.194449  0.315647  0.562888  1
  S  S20  1  0.660583  0.732592  0.557305  1
  S  S21  1  0.452868  0.645039  0.430816  1
  S  S22  1  0.607370  0.462858  0.450680  1
  S  S23  1  0.662974  0.231791  0.440504  1
  S  S24  1  0.891534  0.393638  0.514678  1
  S  S25  1  0.002363  0.250096  0.437178  1
  S  S26  1  0.609406  0.964725  0.548956  1
  S  S27  1  0.805551  0.684353  0.437112  1
  S  S28  1  0.392630  0.537142  0.549320  1
  S  S29  1  0.194961  0.815294  0.439067  1
  S  S30  1  0.764508  0.548579  0.566805  1
  S  S31  1  0.545523  0.852641  0.432105  1
  S  S32  1  0.237742  0.953432  0.569074  1
  S  S33  1  0.337026  0.768209  0.559496  1
  S  S34  1  0.805039  0.184706  0.560933  1
  S  S35  1  0.762258  0.046568  0.430926  1
  S  S36  1  0.454477  0.147359  0.567895  1
  S  S37  1  0.108466  0.606362  0.485322  1
  S  S38  1  0.339417  0.267408  0.442695  1
