# generated using pymatgen
data_BaIF
_symmetry_space_group_name_H-M   'P 1'
_cell_length_a   4.52418085
_cell_length_b   4.52418085
_cell_length_c   25.64242400
_cell_angle_alpha   90.00000000
_cell_angle_beta   90.00000000
_cell_angle_gamma   90.00000000
_symmetry_Int_Tables_number   1
_chemical_formula_structural   BaIF
_chemical_formula_sum   'Ba2 I2 F2'
_cell_volume   524.85457995
_cell_formula_units_Z   2
loop_
 _symmetry_equiv_pos_site_id
 _symmetry_equiv_pos_as_xyz
  1  'x, y, z'
loop_
 _atom_site_type_symbol
 _atom_site_label
 _atom_site_symmetry_multiplicity
 _atom_site_fract_x
 _atom_site_fract_y
 _atom_site_fract_z
 _atom_site_occupancy
  Ba  Ba1  1  0.500000  0.000000  0.556452  1
  Ba  Ba2  1  0.000000  0.500000  0.443548  1
  I  I3  1  0.000000  0.500000  0.618552  1
  I  I4  1  0.500000  0.000000  0.381448  1
  F  F5  1  0.500000  0.500000  0.500000  1
  F  F6  1  0.000000  0.000000  0.500000  1
