# generated using pymatgen
data_CeGe2
_symmetry_space_group_name_H-M   'P 1'
_cell_length_a   3.93812804
_cell_length_b   3.93812804
_cell_length_c   22.58573300
_cell_angle_alpha   90.00000000
_cell_angle_beta   90.00000000
_cell_angle_gamma   90.00000000
_symmetry_Int_Tables_number   1
_chemical_formula_structural   CeGe2
_chemical_formula_sum   'Ce1 Ge2'
_cell_volume   350.27880079
_cell_formula_units_Z   1
loop_
 _symmetry_equiv_pos_site_id
 _symmetry_equiv_pos_as_xyz
  1  'x, y, z'
loop_
 _atom_site_type_symbol
 _atom_site_label
 _atom_site_symmetry_multiplicity
 _atom_site_fract_x
 _atom_site_fract_y
 _atom_site_fract_z
 _atom_site_occupancy
  Ce  Ce1  1  -0.000000  0.000000  0.500000  1
  Ge  Ge2  1  0.500000  0.500000  0.444725  1
  Ge  Ge3  1  0.500000  0.500000  0.555275  1
