# generated using pymatgen
data_Sr2FeClO3
_symmetry_space_group_name_H-M   'P 1'
_cell_length_a   3.93853282
_cell_length_b   3.93853282
_cell_length_c   32.30460300
_cell_angle_alpha   90.00000000
_cell_angle_beta   90.00000000
_cell_angle_gamma   90.00000000
_symmetry_Int_Tables_number   1
_chemical_formula_structural   Sr2FeClO3
_chemical_formula_sum   'Sr4 Fe2 Cl2 O6'
_cell_volume   501.11031893
_cell_formula_units_Z   2
loop_
 _symmetry_equiv_pos_site_id
 _symmetry_equiv_pos_as_xyz
  1  'x, y, z'
loop_
 _atom_site_type_symbol
 _atom_site_label
 _atom_site_symmetry_multiplicity
 _atom_site_fract_x
 _atom_site_fract_y
 _atom_site_fract_z
 _atom_site_occupancy
  Sr  Sr1  1  0.500000  0.000000  0.346421  1
  Sr  Sr2  1  0.500000  0.000000  0.457291  1
  Sr  Sr3  1  -0.000000  0.500000  0.542709  1
  Sr  Sr4  1  -0.000000  0.500000  0.653579  1
  Fe  Fe5  1  0.000000  0.500000  0.407034  1
  Fe  Fe6  1  0.500000  0.000000  0.592966  1
  Cl  Cl7  1  0.000000  0.500000  0.308953  1
  Cl  Cl8  1  0.500000  -0.000000  0.691047  1
  O  O9  1  0.000000  0.000000  0.396716  1
  O  O10  1  0.500000  0.000000  0.533453  1
  O  O11  1  -0.000000  0.000000  0.603284  1
  O  O12  1  0.500000  0.500000  0.396716  1
  O  O13  1  0.500000  0.500000  0.603284  1
  O  O14  1  0.000000  0.500000  0.466547  1
