# generated using pymatgen
data_Al2Zn2S5
_symmetry_space_group_name_H-M   'P 1'
_cell_length_a   3.66953630
_cell_length_b   3.66953539
_cell_length_c   31.89441700
_cell_angle_alpha   90.00000000
_cell_angle_beta   90.00000000
_cell_angle_gamma   60.00000078
_symmetry_Int_Tables_number   1
_chemical_formula_structural   Al2Zn2S5
_chemical_formula_sum   'Al2 Zn2 S5'
_cell_volume   371.93544794
_cell_formula_units_Z   1
loop_
 _symmetry_equiv_pos_site_id
 _symmetry_equiv_pos_as_xyz
  1  'x, y, z'
loop_
 _atom_site_type_symbol
 _atom_site_label
 _atom_site_symmetry_multiplicity
 _atom_site_fract_x
 _atom_site_fract_y
 _atom_site_fract_z
 _atom_site_occupancy
  Al  Al1  1  0.333333  0.333333  0.655734  1
  Al  Al2  1  0.666667  0.666667  0.344266  1
  Zn  Zn3  1  0.333333  0.333333  0.453049  1
  Zn  Zn4  1  0.666667  0.666667  0.546951  1
  S  S5  1  0.000000  0.000000  0.500000  1
  S  S6  1  0.333333  0.333333  0.587416  1
  S  S7  1  0.666667  0.666667  0.412584  1
  S  S8  1  0.000000  0.000000  0.313546  1
  S  S9  1  0.000000  0.000000  0.686454  1
