# generated using pymatgen
data_PuBr3
_symmetry_space_group_name_H-M   'P 1'
_cell_length_a   3.99372237
_cell_length_b   9.05191436
_cell_length_c   24.42190200
_cell_angle_alpha   90.00000000
_cell_angle_beta   90.00000000
_cell_angle_gamma   90.00000000
_symmetry_Int_Tables_number   1
_chemical_formula_structural   PuBr3
_chemical_formula_sum   'Pu2 Br6'
_cell_volume   882.87209759
_cell_formula_units_Z   2
loop_
 _symmetry_equiv_pos_site_id
 _symmetry_equiv_pos_as_xyz
  1  'x, y, z'
loop_
 _atom_site_type_symbol
 _atom_site_label
 _atom_site_symmetry_multiplicity
 _atom_site_fract_x
 _atom_site_fract_y
 _atom_site_fract_z
 _atom_site_occupancy
  Pu  Pu1  1  0.500000  0.000000  0.507274  1
  Pu  Pu2  1  0.000000  0.500000  0.492726  1
  Br  Br3  1  0.000000  0.182131  0.445541  1
  Br  Br4  1  0.500000  0.317869  0.554459  1
  Br  Br5  1  0.500000  0.500000  0.408750  1
  Br  Br6  1  -0.000000  0.000000  0.591250  1
  Br  Br7  1  -0.000000  0.817869  0.445541  1
  Br  Br8  1  0.500000  0.682131  0.554459  1
