# generated using pymatgen
data_RuCl3
_symmetry_space_group_name_H-M   'P 1'
_cell_length_a   5.93330986
_cell_length_b   5.93346198
_cell_length_c   22.68160700
_cell_angle_alpha   90.00000000
_cell_angle_beta   90.00000000
_cell_angle_gamma   119.99915192
_symmetry_Int_Tables_number   1
_chemical_formula_structural   RuCl3
_chemical_formula_sum   'Ru2 Cl6'
_cell_volume   691.53371355
_cell_formula_units_Z   2
loop_
 _symmetry_equiv_pos_site_id
 _symmetry_equiv_pos_as_xyz
  1  'x, y, z'
loop_
 _atom_site_type_symbol
 _atom_site_label
 _atom_site_symmetry_multiplicity
 _atom_site_fract_x
 _atom_site_fract_y
 _atom_site_fract_z
 _atom_site_occupancy
  Ru  Ru1  1  0.666699  0.333397  0.500000  1
  Ru  Ru2  1  0.333301  0.666603  0.500000  1
  Cl  Cl3  1  0.343715  0.343749  0.560250  1
  Cl  Cl4  1  0.343577  0.000000  0.439785  1
  Cl  Cl5  1  0.000034  0.343749  0.439750  1
  Cl  Cl6  1  0.656285  0.656251  0.439750  1
  Cl  Cl7  1  0.999966  0.656251  0.560250  1
  Cl  Cl8  1  0.656423  0.000000  0.560215  1
