# generated using pymatgen
data_K2MgCl4
_symmetry_space_group_name_H-M   'P 1'
_cell_length_a   4.97117855
_cell_length_b   4.97117855
_cell_length_c   31.26490000
_cell_angle_alpha   90.00000000
_cell_angle_beta   90.00000000
_cell_angle_gamma   90.00000000
_symmetry_Int_Tables_number   1
_chemical_formula_structural   K2MgCl4
_chemical_formula_sum   'K2 Mg1 Cl4'
_cell_volume   772.63747348
_cell_formula_units_Z   1
loop_
 _symmetry_equiv_pos_site_id
 _symmetry_equiv_pos_as_xyz
  1  'x, y, z'
loop_
 _atom_site_type_symbol
 _atom_site_label
 _atom_site_symmetry_multiplicity
 _atom_site_fract_x
 _atom_site_fract_y
 _atom_site_fract_z
 _atom_site_occupancy
  K  K1  1  -0.000000  -0.000000  0.665384  1
  K  K2  1  0.000000  0.000000  0.334616  1
  Mg  Mg3  1  -0.000000  0.000000  0.500000  1
  Cl  Cl4  1  0.000000  -0.000000  0.581835  1
  Cl  Cl5  1  0.000000  -0.000000  0.418165  1
  Cl  Cl6  1  -0.000000  0.500000  0.500000  1
  Cl  Cl7  1  0.500000  0.000000  0.500000  1
