# generated using pymatgen
data_HgSeO4
_symmetry_space_group_name_H-M   'P 1'
_cell_length_a   5.18717829
_cell_length_b   6.65123707
_cell_length_c   23.66861300
_cell_angle_alpha   90.00000000
_cell_angle_beta   90.00000000
_cell_angle_gamma   90.00000000
_symmetry_Int_Tables_number   1
_chemical_formula_structural   HgSeO4
_chemical_formula_sum   'Hg2 Se2 O8'
_cell_volume   816.59442731
_cell_formula_units_Z   2
loop_
 _symmetry_equiv_pos_site_id
 _symmetry_equiv_pos_as_xyz
  1  'x, y, z'
loop_
 _atom_site_type_symbol
 _atom_site_label
 _atom_site_symmetry_multiplicity
 _atom_site_fract_x
 _atom_site_fract_y
 _atom_site_fract_z
 _atom_site_occupancy
  Hg  Hg1  1  0.453118  0.500000  0.446357  1
  Hg  Hg2  1  0.953118  -0.000000  0.553643  1
  Se  Se3  1  0.987425  0.500000  0.544961  1
  Se  Se4  1  0.487425  -0.000000  0.455039  1
  O  O5  1  0.307387  0.500000  0.543863  1
  O  O6  1  0.807387  -0.000000  0.456137  1
  O  O7  1  0.889501  0.500000  0.477271  1
  O  O8  1  0.389501  -0.000000  0.522729  1
  O  O9  1  0.867184  0.696915  0.582086  1
  O  O10  1  0.367184  0.803085  0.417914  1
  O  O11  1  0.367184  0.196915  0.417914  1
  O  O12  1  0.867184  0.303085  0.582086  1
