# generated using pymatgen
data_Zn3(InS3)2
_symmetry_space_group_name_H-M   'P 1'
_cell_length_a   3.88895684
_cell_length_b   3.88895732
_cell_length_c   35.90976826
_cell_angle_alpha   90.00000000
_cell_angle_beta   90.00000000
_cell_angle_gamma   119.99999593
_symmetry_Int_Tables_number   1
_chemical_formula_structural   Zn3(InS3)2
_chemical_formula_sum   'Zn3 In2 S6'
_cell_volume   470.33744112
_cell_formula_units_Z   1
loop_
 _symmetry_equiv_pos_site_id
 _symmetry_equiv_pos_as_xyz
  1  'x, y, z'
loop_
 _atom_site_type_symbol
 _atom_site_label
 _atom_site_symmetry_multiplicity
 _atom_site_fract_x
 _atom_site_fract_y
 _atom_site_fract_z
 _atom_site_occupancy
  Zn  Zn1  1  0.333333  0.666667  0.303305  1
  Zn  Zn2  1  0.666667  0.333333  0.390031  1
  Zn  Zn3  1  0.333333  0.666667  0.601137  1
  In  In4  1  0.000000  -0.000000  0.496460  1
  In  In5  1  0.666667  0.333333  0.696206  1
  S  S6  1  0.666667  0.333333  0.286032  1
  S  S7  1  0.333333  0.666667  0.374102  1
  S  S8  1  0.666667  0.333333  0.626254  1
  S  S9  1  0.333333  0.666667  0.538730  1
  S  S10  1  0.333333  0.666667  0.727693  1
  S  S11  1  0.666667  0.333333  0.460046  1
