# generated using pymatgen
data_CrCuSe2
_symmetry_space_group_name_H-M   'P 1'
_cell_length_a   3.81674861
_cell_length_b   3.81674824
_cell_length_c   25.08247100
_cell_angle_alpha   90.00000000
_cell_angle_beta   90.00000000
_cell_angle_gamma   60.00000651
_symmetry_Int_Tables_number   1
_chemical_formula_structural   CrCuSe2
_chemical_formula_sum   'Cr1 Cu1 Se2'
_cell_volume   316.43757579
_cell_formula_units_Z   1
loop_
 _symmetry_equiv_pos_site_id
 _symmetry_equiv_pos_as_xyz
  1  'x, y, z'
loop_
 _atom_site_type_symbol
 _atom_site_label
 _atom_site_symmetry_multiplicity
 _atom_site_fract_x
 _atom_site_fract_y
 _atom_site_fract_z
 _atom_site_occupancy
  Cr  Cr1  1  0.000000  0.000000  0.591397  1
  Cu  Cu2  1  0.333333  0.333333  0.444847  1
  Se  Se3  1  0.000000  -0.000000  0.412172  1
  Se  Se4  1  0.333333  0.333333  0.551584  1
