# generated using pymatgen
data_FeHO2
_symmetry_space_group_name_H-M   'P 1'
_cell_length_a   2.63857492
_cell_length_b   4.00331704
_cell_length_c   25.85338200
_cell_angle_alpha   90.00000000
_cell_angle_beta   90.00000000
_cell_angle_gamma   90.00000000
_symmetry_Int_Tables_number   1
_chemical_formula_structural   FeHO2
_chemical_formula_sum   'Fe2 H2 O4'
_cell_volume   273.09061685
_cell_formula_units_Z   2
loop_
 _symmetry_equiv_pos_site_id
 _symmetry_equiv_pos_as_xyz
  1  'x, y, z'
loop_
 _atom_site_type_symbol
 _atom_site_label
 _atom_site_symmetry_multiplicity
 _atom_site_fract_x
 _atom_site_fract_y
 _atom_site_fract_z
 _atom_site_occupancy
  Fe  Fe1  1  -0.000000  0.193935  0.536631  1
  Fe  Fe2  1  0.500000  0.693935  0.463369  1
  H  H3  1  0.000000  0.176255  0.613238  1
  H  H4  1  0.500000  0.676255  0.386762  1
  O  O5  1  0.500000  0.192826  0.478945  1
  O  O6  1  0.000000  0.692826  0.521055  1
  O  O7  1  0.500000  0.182984  0.597699  1
  O  O8  1  0.000000  0.682984  0.402301  1
