# generated using pymatgen
data_Ba(NiO2)4
_symmetry_space_group_name_H-M   'P 1'
_cell_length_a   5.36438241
_cell_length_b   5.36438295
_cell_length_c   24.51439300
_cell_angle_alpha   90.00000000
_cell_angle_beta   90.00000000
_cell_angle_gamma   120.00000252
_symmetry_Int_Tables_number   1
_chemical_formula_structural   Ba(NiO2)4
_chemical_formula_sum   'Ba1 Ni4 O8'
_cell_volume   610.92974181
_cell_formula_units_Z   1
loop_
 _symmetry_equiv_pos_site_id
 _symmetry_equiv_pos_as_xyz
  1  'x, y, z'
loop_
 _atom_site_type_symbol
 _atom_site_label
 _atom_site_symmetry_multiplicity
 _atom_site_fract_x
 _atom_site_fract_y
 _atom_site_fract_z
 _atom_site_occupancy
  Ba  Ba1  1  -0.000000  0.000000  0.500000  1
  Ni  Ni2  1  0.333333  0.666667  0.574566  1
  Ni  Ni3  1  0.666667  0.333333  0.574566  1
  Ni  Ni4  1  0.333333  0.666667  0.425434  1
  Ni  Ni5  1  0.666667  0.333333  0.425434  1
  O  O6  1  1.000000  0.344754  0.592732  1
  O  O7  1  0.344754  0.000000  0.592732  1
  O  O8  1  0.655246  0.655246  0.592732  1
  O  O9  1  0.000000  0.655246  0.407268  1
  O  O10  1  0.344754  0.344754  0.407268  1
  O  O11  1  0.655246  1.000000  0.407268  1
  O  O12  1  0.333333  0.666667  0.500000  1
  O  O13  1  0.666667  0.333333  0.500000  1
