# generated using pymatgen
data_SiO2
_symmetry_space_group_name_H-M   'P 1'
_cell_length_a   4.99513588
_cell_length_b   4.99513529
_cell_length_c   24.51025400
_cell_angle_alpha   90.00000000
_cell_angle_beta   90.00000000
_cell_angle_gamma   118.07833103
_symmetry_Int_Tables_number   1
_chemical_formula_structural   SiO2
_chemical_formula_sum   'Si3 O6'
_cell_volume   539.58650974
_cell_formula_units_Z   3
loop_
 _symmetry_equiv_pos_site_id
 _symmetry_equiv_pos_as_xyz
  1  'x, y, z'
loop_
 _atom_site_type_symbol
 _atom_site_label
 _atom_site_symmetry_multiplicity
 _atom_site_fract_x
 _atom_site_fract_y
 _atom_site_fract_z
 _atom_site_occupancy
  Si  Si1  1  0.786859  0.379471  0.560328  1
  Si  Si2  1  0.177155  0.177155  0.500000  1
  Si  Si3  1  0.379471  0.786859  0.439672  1
  O  O4  1  0.659776  0.016841  0.408673  1
  O  O5  1  0.441043  0.292120  0.546750  1
  O  O6  1  0.135135  0.861600  0.471932  1
  O  O7  1  0.292120  0.441043  0.453250  1
  O  O8  1  0.861600  0.135135  0.528068  1
  O  O9  1  0.016841  0.659776  0.591327  1
