# generated using pymatgen
data_BaLaCl5
_symmetry_space_group_name_H-M   'P 1'
_cell_length_a   4.45721159
_cell_length_b   15.44381015
_cell_length_c   24.62655400
_cell_angle_alpha   90.00000000
_cell_angle_beta   90.00000000
_cell_angle_gamma   90.00000000
_symmetry_Int_Tables_number   1
_chemical_formula_structural   BaLaCl5
_chemical_formula_sum   'Ba2 La2 Cl10'
_cell_volume   1695.20158792
_cell_formula_units_Z   2
loop_
 _symmetry_equiv_pos_site_id
 _symmetry_equiv_pos_as_xyz
  1  'x, y, z'
loop_
 _atom_site_type_symbol
 _atom_site_label
 _atom_site_symmetry_multiplicity
 _atom_site_fract_x
 _atom_site_fract_y
 _atom_site_fract_z
 _atom_site_occupancy
  Ba  Ba1  1  0.750000  0.324831  0.476259  1
  Ba  Ba2  1  0.250000  0.587102  0.523741  1
  La  La3  1  0.250000  0.083514  0.523350  1
  La  La4  1  0.750000  0.828420  0.476650  1
  Cl  Cl5  1  0.250000  0.189469  0.430512  1
  Cl  Cl6  1  0.750000  0.468345  0.563240  1
  Cl  Cl7  1  0.750000  0.016089  0.456709  1
  Cl  Cl8  1  0.250000  0.255281  0.559615  1
  Cl  Cl9  1  0.250000  0.835495  0.407750  1
  Cl  Cl10  1  0.750000  0.076438  0.592250  1
  Cl  Cl11  1  0.750000  0.656653  0.440385  1
  Cl  Cl12  1  0.250000  0.895844  0.543291  1
  Cl  Cl13  1  0.250000  0.443588  0.436760  1
  Cl  Cl14  1  0.750000  0.722465  0.569488  1
