# generated using pymatgen
data_Cu(IO3)2
_symmetry_space_group_name_H-M   'P 1'
_cell_length_a   4.86089116
_cell_length_b   6.38060875
_cell_length_c   26.69999900
_cell_angle_alpha   90.00000000
_cell_angle_beta   90.00000000
_cell_angle_gamma   90.00000000
_symmetry_Int_Tables_number   1
_chemical_formula_structural   Cu(IO3)2
_chemical_formula_sum   'Cu2 I4 O12'
_cell_volume   828.11234163
_cell_formula_units_Z   2
loop_
 _symmetry_equiv_pos_site_id
 _symmetry_equiv_pos_as_xyz
  1  'x, y, z'
loop_
 _atom_site_type_symbol
 _atom_site_label
 _atom_site_symmetry_multiplicity
 _atom_site_fract_x
 _atom_site_fract_y
 _atom_site_fract_z
 _atom_site_occupancy
  Cu  Cu1  1  0.500000  0.500000  0.500000  1
  Cu  Cu2  1  0.500000  0.000000  0.500000  1
  I  I3  1  0.558544  0.750000  0.393714  1
  I  I4  1  0.047019  0.250000  0.417860  1
  I  I5  1  0.952981  0.750000  0.582140  1
  I  I6  1  0.441456  0.250000  0.606286  1
  O  O7  1  0.724293  0.969983  0.560448  1
  O  O8  1  0.275707  0.030017  0.439552  1
  O  O9  1  0.346272  0.250000  0.536278  1
  O  O10  1  0.653728  0.750000  0.463722  1
  O  O11  1  0.807943  0.250000  0.469361  1
  O  O12  1  0.221991  0.467793  0.625486  1
  O  O13  1  0.275707  0.469983  0.439552  1
  O  O14  1  0.221991  0.032207  0.625486  1
  O  O15  1  0.778009  0.532207  0.374514  1
  O  O16  1  0.778009  0.967793  0.374514  1
  O  O17  1  0.724293  0.530017  0.560448  1
  O  O18  1  0.192057  0.750000  0.530639  1
