# generated using pymatgen
data_KNO3
_symmetry_space_group_name_H-M   'P 1'
_cell_length_a   5.27790683
_cell_length_b   6.40088835
_cell_length_c   24.16476094
_cell_angle_alpha   90.00000000
_cell_angle_beta   90.00000000
_cell_angle_gamma   90.00000000
_symmetry_Int_Tables_number   1
_chemical_formula_structural   KNO3
_chemical_formula_sum   'K2 N2 O6'
_cell_volume   816.36518318
_cell_formula_units_Z   2
loop_
 _symmetry_equiv_pos_site_id
 _symmetry_equiv_pos_as_xyz
  1  'x, y, z'
loop_
 _atom_site_type_symbol
 _atom_site_label
 _atom_site_symmetry_multiplicity
 _atom_site_fract_x
 _atom_site_fract_y
 _atom_site_fract_z
 _atom_site_occupancy
  K  K1  1  -0.000000  0.673923  0.553227  1
  K  K2  1  -0.000000  0.173923  0.446773  1
  N  N3  1  0.500000  0.440819  0.455333  1
  N  N4  1  0.500000  0.940819  0.544667  1
  O  O5  1  0.708271  0.012869  0.527098  1
  O  O6  1  0.291729  0.012869  0.527098  1
  O  O7  1  0.708271  0.512869  0.472902  1
  O  O8  1  0.500000  0.794810  0.580268  1
  O  O9  1  0.500000  0.294810  0.419732  1
  O  O10  1  0.291729  0.512869  0.472902  1
