# generated using pymatgen
data_RuF4
_symmetry_space_group_name_H-M   'P 1'
_cell_length_a   4.98299017
_cell_length_b   5.43595350
_cell_length_c   23.37323000
_cell_angle_alpha   90.00000000
_cell_angle_beta   90.00000000
_cell_angle_gamma   89.99960147
_symmetry_Int_Tables_number   1
_chemical_formula_structural   RuF4
_chemical_formula_sum   'Ru2 F8'
_cell_volume   633.11775910
_cell_formula_units_Z   2
loop_
 _symmetry_equiv_pos_site_id
 _symmetry_equiv_pos_as_xyz
  1  'x, y, z'
loop_
 _atom_site_type_symbol
 _atom_site_label
 _atom_site_symmetry_multiplicity
 _atom_site_fract_x
 _atom_site_fract_y
 _atom_site_fract_z
 _atom_site_occupancy
  Ru  Ru1  1  0.000000  0.000000  0.500000  1
  Ru  Ru2  1  0.500000  0.500000  0.500000  1
  F  F3  1  0.332430  0.179688  0.525207  1
  F  F4  1  0.354235  0.456603  0.427323  1
  F  F5  1  0.854152  0.043396  0.572670  1
  F  F6  1  0.832464  0.320307  0.474796  1
  F  F7  1  0.167536  0.679693  0.525204  1
  F  F8  1  0.145848  0.956604  0.427330  1
  F  F9  1  0.645765  0.543397  0.572677  1
  F  F10  1  0.667570  0.820312  0.474793  1
