# generated using pymatgen
data_Ag(AuS)2
_symmetry_space_group_name_H-M   'P 1'
_cell_length_a   4.42621226
_cell_length_b   7.09519875
_cell_length_c   23.39878715
_cell_angle_alpha   88.11329633
_cell_angle_beta   90.00000000
_cell_angle_gamma   90.00000000
_symmetry_Int_Tables_number   1
_chemical_formula_structural   Ag(AuS)2
_chemical_formula_sum   'Ag2 Au4 S4'
_cell_volume   734.43716673
_cell_formula_units_Z   2
loop_
 _symmetry_equiv_pos_site_id
 _symmetry_equiv_pos_as_xyz
  1  'x, y, z'
loop_
 _atom_site_type_symbol
 _atom_site_label
 _atom_site_symmetry_multiplicity
 _atom_site_fract_x
 _atom_site_fract_y
 _atom_site_fract_z
 _atom_site_occupancy
  Ag  Ag1  1  0.231176  0.638796  0.587138  1
  Ag  Ag2  1  0.768824  0.138796  0.587138  1
  Au  Au3  1  0.105436  0.987102  0.492712  1
  Au  Au4  1  0.894564  0.487102  0.492712  1
  Au  Au5  1  0.499407  0.744659  0.424794  1
  Au  Au6  1  0.500593  0.244659  0.424794  1
  S  S7  1  0.831579  0.996038  0.406702  1
  S  S8  1  0.728083  0.485593  0.588654  1
  S  S9  1  0.271917  0.985593  0.588654  1
  S  S10  1  0.168421  0.496038  0.406702  1
