# generated using pymatgen
data_VF4
_symmetry_space_group_name_H-M   'P 1'
_cell_length_a   7.43714899
_cell_length_b   7.57333341
_cell_length_c   23.48471600
_cell_angle_alpha   90.00000000
_cell_angle_beta   90.00000000
_cell_angle_gamma   90.00000000
_symmetry_Int_Tables_number   1
_chemical_formula_structural   VF4
_chemical_formula_sum   'V4 F16'
_cell_volume   1322.75335349
_cell_formula_units_Z   4
loop_
 _symmetry_equiv_pos_site_id
 _symmetry_equiv_pos_as_xyz
  1  'x, y, z'
loop_
 _atom_site_type_symbol
 _atom_site_label
 _atom_site_symmetry_multiplicity
 _atom_site_fract_x
 _atom_site_fract_y
 _atom_site_fract_z
 _atom_site_occupancy
  V  V1  1  0.749863  0.610082  0.499916  1
  V  V2  1  0.250137  0.610082  0.499916  1
  V  V3  1  0.750137  0.110082  0.500084  1
  V  V4  1  0.249863  0.110082  0.500084  1
  F  F5  1  0.800558  0.626833  0.426747  1
  F  F6  1  0.199442  0.626833  0.426747  1
  F  F7  1  0.799314  0.088193  0.426844  1
  F  F8  1  0.200686  0.088193  0.426844  1
  F  F9  1  0.500000  0.552935  0.480948  1
  F  F10  1  0.500000  0.166341  0.481297  1
  F  F11  1  0.187324  0.359335  0.497357  1
  F  F12  1  0.812676  0.359335  0.497357  1
  F  F13  1  0.687324  0.859335  0.502643  1
  F  F14  1  0.312676  0.859335  0.502643  1
  F  F15  1  -0.000000  0.666341  0.518703  1
  F  F16  1  -0.000000  0.052935  0.519052  1
  F  F17  1  0.700686  0.588193  0.573156  1
  F  F18  1  0.299314  0.588193  0.573156  1
  F  F19  1  0.699442  0.126833  0.573253  1
  F  F20  1  0.300558  0.126833  0.573253  1
