# generated using pymatgen
data_ZnH
_symmetry_space_group_name_H-M   'P 1'
_cell_length_a   2.69020401
_cell_length_b   2.69020423
_cell_length_c   21.79058500
_cell_angle_alpha   90.00000000
_cell_angle_beta   90.00000000
_cell_angle_gamma   119.99999747
_symmetry_Int_Tables_number   1
_chemical_formula_structural   ZnH
_chemical_formula_sum   'Zn1 H1'
_cell_volume   136.57461931
_cell_formula_units_Z   1
loop_
 _symmetry_equiv_pos_site_id
 _symmetry_equiv_pos_as_xyz
  1  'x, y, z'
loop_
 _atom_site_type_symbol
 _atom_site_label
 _atom_site_symmetry_multiplicity
 _atom_site_fract_x
 _atom_site_fract_y
 _atom_site_fract_z
 _atom_site_occupancy
  Zn  Zn1  1  0.000000  0.000000  0.462911  1
  H  H2  1  -0.000000  -0.000000  0.537089  1
