# generated using pymatgen
data_CuS2
_symmetry_space_group_name_H-M   'P 1'
_cell_length_a   3.32355430
_cell_length_b   5.25101640
_cell_length_c   22.83034400
_cell_angle_alpha   90.00000000
_cell_angle_beta   90.00000000
_cell_angle_gamma   90.00000000
_symmetry_Int_Tables_number   1
_chemical_formula_structural   CuS2
_chemical_formula_sum   'Cu2 S4'
_cell_volume   398.43603414
_cell_formula_units_Z   2
loop_
 _symmetry_equiv_pos_site_id
 _symmetry_equiv_pos_as_xyz
  1  'x, y, z'
loop_
 _atom_site_type_symbol
 _atom_site_label
 _atom_site_symmetry_multiplicity
 _atom_site_fract_x
 _atom_site_fract_y
 _atom_site_fract_z
 _atom_site_occupancy
  Cu  Cu1  1  -0.000000  0.681352  0.476080  1
  Cu  Cu2  1  0.000000  0.187253  0.505456  1
  S  S3  1  0.500000  0.810665  0.414440  1
  S  S4  1  0.500000  0.193847  0.437198  1
  S  S5  1  -0.000000  0.002024  0.593524  1
  S  S6  1  -0.000000  0.627089  0.573305  1
