# generated using pymatgen
data_GeP3
_symmetry_space_group_name_H-M   'P 1'
_cell_length_a   6.99672333
_cell_length_b   6.99672361
_cell_length_c   21.17338057
_cell_angle_alpha   90.00000000
_cell_angle_beta   90.00000000
_cell_angle_gamma   59.99999667
_symmetry_Int_Tables_number   1
_chemical_formula_structural   GeP3
_chemical_formula_sum   'Ge2 P6'
_cell_volume   897.65662492
_cell_formula_units_Z   2
loop_
 _symmetry_equiv_pos_site_id
 _symmetry_equiv_pos_as_xyz
  1  'x, y, z'
loop_
 _atom_site_type_symbol
 _atom_site_label
 _atom_site_symmetry_multiplicity
 _atom_site_fract_x
 _atom_site_fract_y
 _atom_site_fract_z
 _atom_site_occupancy
  Ge  Ge1  1  0.000000  -0.000000  0.519876  1
  Ge  Ge2  1  0.333333  0.333333  0.480124  1
  P  P3  1  0.511856  0.511856  0.529267  1
  P  P4  1  0.511856  0.976288  0.529267  1
  P  P5  1  0.821478  0.357046  0.470733  1
  P  P6  1  0.821478  0.821478  0.470733  1
  P  P7  1  0.357046  0.821478  0.470733  1
  P  P8  1  0.976288  0.511856  0.529267  1
