# generated using pymatgen
data_Li2UBr6
_symmetry_space_group_name_H-M   'P 1'
_cell_length_a   6.84960726
_cell_length_b   6.84960659
_cell_length_c   23.11212800
_cell_angle_alpha   90.00000000
_cell_angle_beta   90.00000000
_cell_angle_gamma   119.99999867
_symmetry_Int_Tables_number   1
_chemical_formula_structural   Li2UBr6
_chemical_formula_sum   'Li2 U1 Br6'
_cell_volume   939.07844230
_cell_formula_units_Z   1
loop_
 _symmetry_equiv_pos_site_id
 _symmetry_equiv_pos_as_xyz
  1  'x, y, z'
loop_
 _atom_site_type_symbol
 _atom_site_label
 _atom_site_symmetry_multiplicity
 _atom_site_fract_x
 _atom_site_fract_y
 _atom_site_fract_z
 _atom_site_occupancy
  Li  Li1  1  0.000000  0.000000  0.500000  1
  Li  Li2  1  0.333333  0.666667  0.500000  1
  U  U3  1  0.666667  0.333333  0.500000  1
  Br  Br4  1  0.666604  0.995872  0.432374  1
  Br  Br5  1  0.329270  0.333396  0.432374  1
  Br  Br6  1  0.004128  0.333396  0.567626  1
  Br  Br7  1  0.004128  0.670730  0.432374  1
  Br  Br8  1  0.666604  0.670730  0.567626  1
  Br  Br9  1  0.329270  0.995872  0.567626  1
