# generated using pymatgen
data_Mn(GaS2)2
_symmetry_space_group_name_H-M   'P 1'
_cell_length_a   3.70486621
_cell_length_b   3.70486632
_cell_length_c   29.12363100
_cell_angle_alpha   90.00000000
_cell_angle_beta   90.00000000
_cell_angle_gamma   60.00000090
_symmetry_Int_Tables_number   1
_chemical_formula_structural   Mn(GaS2)2
_chemical_formula_sum   'Mn1 Ga2 S4'
_cell_volume   346.19534752
_cell_formula_units_Z   1
loop_
 _symmetry_equiv_pos_site_id
 _symmetry_equiv_pos_as_xyz
  1  'x, y, z'
loop_
 _atom_site_type_symbol
 _atom_site_label
 _atom_site_symmetry_multiplicity
 _atom_site_fract_x
 _atom_site_fract_y
 _atom_site_fract_z
 _atom_site_occupancy
  Mn  Mn1  1  0.666667  0.666667  0.373343  1
  Ga  Ga2  1  0.000000  0.000000  0.497542  1
  Ga  Ga3  1  0.333333  0.333333  0.624142  1
  S  S4  1  0.000000  0.000000  0.343562  1
  S  S5  1  0.000000  0.000000  0.658489  1
  S  S6  1  0.666667  0.666667  0.455552  1
  S  S7  1  0.333333  0.333333  0.547372  1
