# generated using pymatgen
data_LaWClO4
_symmetry_space_group_name_H-M   'P 1'
_cell_length_a   3.88631022
_cell_length_b   6.21311795
_cell_length_c   30.02744454
_cell_angle_alpha   90.00000000
_cell_angle_beta   90.00000000
_cell_angle_gamma   90.00000000
_symmetry_Int_Tables_number   1
_chemical_formula_structural   LaWClO4
_chemical_formula_sum   'La2 W2 Cl2 O8'
_cell_volume   725.04579233
_cell_formula_units_Z   2
loop_
 _symmetry_equiv_pos_site_id
 _symmetry_equiv_pos_as_xyz
  1  'x, y, z'
loop_
 _atom_site_type_symbol
 _atom_site_label
 _atom_site_symmetry_multiplicity
 _atom_site_fract_x
 _atom_site_fract_y
 _atom_site_fract_z
 _atom_site_occupancy
  La  La1  1  0.257382  -0.000000  0.595804  1
  La  La2  1  0.757382  0.500000  0.404196  1
  W  W3  1  0.772966  0.500000  0.545991  1
  W  W4  1  0.272966  -0.000000  0.454009  1
  Cl  Cl5  1  0.756010  -0.000000  0.665666  1
  Cl  Cl6  1  0.256010  0.500000  0.334334  1
  O  O7  1  0.258969  0.264756  0.424543  1
  O  O8  1  0.758969  0.764756  0.575457  1
  O  O9  1  0.759371  0.500000  0.486032  1
  O  O10  1  0.758969  0.235244  0.575457  1
  O  O11  1  0.264492  0.500000  0.550867  1
  O  O12  1  0.259371  -0.000000  0.513968  1
  O  O13  1  0.258969  0.735244  0.424543  1
  O  O14  1  0.764492  -0.000000  0.449133  1
