# generated using pymatgen
data_LaHBr2
_symmetry_space_group_name_H-M   'P 1'
_cell_length_a   4.10894550
_cell_length_b   4.10894549
_cell_length_c   23.98890963
_cell_angle_alpha   90.00000000
_cell_angle_beta   90.00000000
_cell_angle_gamma   120.00000011
_symmetry_Int_Tables_number   1
_chemical_formula_structural   LaHBr2
_chemical_formula_sum   'La1 H1 Br2'
_cell_volume   350.75340848
_cell_formula_units_Z   1
loop_
 _symmetry_equiv_pos_site_id
 _symmetry_equiv_pos_as_xyz
  1  'x, y, z'
loop_
 _atom_site_type_symbol
 _atom_site_label
 _atom_site_symmetry_multiplicity
 _atom_site_fract_x
 _atom_site_fract_y
 _atom_site_fract_z
 _atom_site_occupancy
  La  La1  1  0.666667  0.333333  0.500000  1
  H  H2  1  0.333333  0.666667  0.500000  1
  Br  Br3  1  0.000000  -0.000000  0.581462  1
  Br  Br4  1  0.000000  -0.000000  0.418538  1
