# generated using pymatgen
data_NaNO2
_symmetry_space_group_name_H-M   'P 1'
_cell_length_a   4.49811219
_cell_length_b   4.78100022
_cell_length_c   26.35784600
_cell_angle_alpha   90.00000000
_cell_angle_beta   90.00000000
_cell_angle_gamma   90.00000000
_symmetry_Int_Tables_number   1
_chemical_formula_structural   NaNO2
_chemical_formula_sum   'Na2 N2 O4'
_cell_volume   566.83800796
_cell_formula_units_Z   2
loop_
 _symmetry_equiv_pos_site_id
 _symmetry_equiv_pos_as_xyz
  1  'x, y, z'
loop_
 _atom_site_type_symbol
 _atom_site_label
 _atom_site_symmetry_multiplicity
 _atom_site_fract_x
 _atom_site_fract_y
 _atom_site_fract_z
 _atom_site_occupancy
  Na  Na1  1  0.250400  0.750000  0.476410  1
  Na  Na2  1  0.749600  0.250000  0.523590  1
  N  N3  1  0.276434  0.750000  0.377287  1
  N  N4  1  0.723566  0.250000  0.622713  1
  O  O5  1  0.750739  0.608165  0.463196  1
  O  O6  1  0.750739  0.891835  0.463196  1
  O  O7  1  0.249261  0.391835  0.536804  1
  O  O8  1  0.249261  0.108165  0.536804  1
