# generated using pymatgen
data_Ba(CoO2)4
_symmetry_space_group_name_H-M   'P 1'
_cell_length_a   5.49923569
_cell_length_b   5.49923589
_cell_length_c   24.45291900
_cell_angle_alpha   90.00000000
_cell_angle_beta   90.00000000
_cell_angle_gamma   119.99999875
_symmetry_Int_Tables_number   1
_chemical_formula_structural   Ba(CoO2)4
_chemical_formula_sum   'Ba1 Co4 O8'
_cell_volume   640.42168477
_cell_formula_units_Z   1
loop_
 _symmetry_equiv_pos_site_id
 _symmetry_equiv_pos_as_xyz
  1  'x, y, z'
loop_
 _atom_site_type_symbol
 _atom_site_label
 _atom_site_symmetry_multiplicity
 _atom_site_fract_x
 _atom_site_fract_y
 _atom_site_fract_z
 _atom_site_occupancy
  Ba  Ba1  1  0.000000  0.000000  0.500000  1
  Co  Co2  1  0.333333  0.666667  0.575856  1
  Co  Co3  1  0.666667  0.333333  0.575856  1
  Co  Co4  1  0.333333  0.666667  0.424144  1
  Co  Co5  1  0.666667  0.333333  0.424144  1
  O  O6  1  1.000000  0.347503  0.589914  1
  O  O7  1  0.347503  0.000000  0.589914  1
  O  O8  1  0.652497  0.652497  0.589914  1
  O  O9  1  0.000000  0.652497  0.410086  1
  O  O10  1  0.347503  0.347503  0.410086  1
  O  O11  1  0.652497  -0.000000  0.410086  1
  O  O12  1  0.333333  0.666667  0.500000  1
  O  O13  1  0.666667  0.333333  0.500000  1
