# generated using pymatgen
data_Ta(NiTe)2
_symmetry_space_group_name_H-M   'P 1'
_cell_length_a   3.54552857
_cell_length_b   6.50884059
_cell_length_c   25.49067859
_cell_angle_alpha   90.00000000
_cell_angle_beta   90.00000000
_cell_angle_gamma   90.00000000
_symmetry_Int_Tables_number   1
_chemical_formula_structural   Ta(NiTe)2
_chemical_formula_sum   'Ta2 Ni4 Te4'
_cell_volume   588.25553408
_cell_formula_units_Z   2
loop_
 _symmetry_equiv_pos_site_id
 _symmetry_equiv_pos_as_xyz
  1  'x, y, z'
loop_
 _atom_site_type_symbol
 _atom_site_label
 _atom_site_symmetry_multiplicity
 _atom_site_fract_x
 _atom_site_fract_y
 _atom_site_fract_z
 _atom_site_occupancy
  Ta  Ta1  1  0.000000  0.406419  0.482300  1
  Ta  Ta2  1  -0.000000  0.906419  0.517700  1
  Ni  Ni3  1  0.500000  0.210982  0.544976  1
  Ni  Ni4  1  0.500000  0.710982  0.455024  1
  Ni  Ni5  1  0.500000  0.602303  0.544931  1
  Ni  Ni6  1  0.500000  0.102303  0.455069  1
  Te  Te7  1  0.500000  0.906608  0.608267  1
  Te  Te8  1  0.500000  0.406608  0.391733  1
  Te  Te9  1  0.000000  0.906945  0.400882  1
  Te  Te10  1  0.000000  0.406945  0.599118  1
