# generated using pymatgen
data_Nb2VZn2O8
_symmetry_space_group_name_H-M   'P 1'
_cell_length_a   5.34602731
_cell_length_b   6.06642874
_cell_length_c   26.81211731
_cell_angle_alpha   90.02705983
_cell_angle_beta   89.67375140
_cell_angle_gamma   89.99981317
_symmetry_Int_Tables_number   1
_chemical_formula_structural   Nb2VZn2O8
_chemical_formula_sum   'Nb4 V2 Zn4 O16'
_cell_volume   869.53745866
_cell_formula_units_Z   2
loop_
 _symmetry_equiv_pos_site_id
 _symmetry_equiv_pos_as_xyz
  1  'x, y, z'
loop_
 _atom_site_type_symbol
 _atom_site_label
 _atom_site_symmetry_multiplicity
 _atom_site_fract_x
 _atom_site_fract_y
 _atom_site_fract_z
 _atom_site_occupancy
  Nb  Nb1  1  0.208335  0.342404  0.582776  1
  Nb  Nb2  1  0.191551  0.341942  0.417202  1
  Nb  Nb3  1  0.691570  0.653767  0.417218  1
  Nb  Nb4  1  0.708347  0.654039  0.582797  1
  V  V5  1  0.199827  0.854741  0.500006  1
  V  V6  1  0.699872  0.141362  0.499997  1
  Zn  Zn7  1  0.185509  0.846462  0.362310  1
  Zn  Zn8  1  0.214386  0.847210  0.637697  1
  Zn  Zn9  1  0.714346  0.149403  0.637680  1
  Zn  Zn10  1  0.685546  0.149106  0.362306  1
  O  O11  1  0.872489  0.380465  0.548984  1
  O  O12  1  0.527433  0.380137  0.450982  1
  O  O13  1  0.027399  0.615651  0.451005  1
  O  O14  1  0.372455  0.615977  0.549010  1
  O  O15  1  0.355019  0.124209  0.542032  1
  O  O16  1  0.044690  0.124020  0.457948  1
  O  O17  1  0.544648  0.871815  0.457976  1
  O  O18  1  0.854989  0.872154  0.542059  1
  O  O19  1  0.511298  0.396766  0.626216  1
  O  O20  1  0.888777  0.396443  0.373736  1
  O  O21  1  0.569569  0.860182  0.635536  1
  O  O22  1  0.830352  0.859865  0.364540  1
  O  O23  1  0.330378  0.135681  0.364509  1
  O  O24  1  0.069526  0.136386  0.635486  1
  O  O25  1  0.011269  0.599781  0.626241  1
  O  O26  1  0.388751  0.599157  0.373749  1
