# generated using pymatgen
data_BaSn2(HO2)2
_symmetry_space_group_name_H-M   'P 1'
_cell_length_a   5.77560500
_cell_length_b   7.20433857
_cell_length_c   25.80477000
_cell_angle_alpha   90.09920521
_cell_angle_beta   90.00000000
_cell_angle_gamma   90.00000000
_symmetry_Int_Tables_number   1
_chemical_formula_structural   BaSn2(HO2)2
_chemical_formula_sum   'Ba2 Sn4 H4 O8'
_cell_volume   1073.71974505
_cell_formula_units_Z   2
loop_
 _symmetry_equiv_pos_site_id
 _symmetry_equiv_pos_as_xyz
  1  'x, y, z'
loop_
 _atom_site_type_symbol
 _atom_site_label
 _atom_site_symmetry_multiplicity
 _atom_site_fract_x
 _atom_site_fract_y
 _atom_site_fract_z
 _atom_site_occupancy
  Ba  Ba1  1  0.497188  0.294088  0.516604  1
  Ba  Ba2  1  0.997188  0.705912  0.483396  1
  Sn  Sn3  1  0.503804  0.744671  0.600675  1
  Sn  Sn4  1  0.003804  0.255329  0.399325  1
  Sn  Sn5  1  0.503313  0.544283  0.386947  1
  Sn  Sn6  1  0.003313  0.455717  0.613053  1
  H  H7  1  0.507943  0.865049  0.503427  1
  H  H8  1  0.007943  0.134951  0.496573  1
  H  H9  1  0.501799  0.894675  0.419900  1
  H  H10  1  0.001799  0.105325  0.580100  1
  O  O11  1  0.248152  0.431806  0.434898  1
  O  O12  1  0.748152  0.568194  0.565102  1
  O  O13  1  0.250583  0.577879  0.564511  1
  O  O14  1  0.750583  0.422121  0.435489  1
  O  O15  1  0.518094  0.930335  0.537461  1
  O  O16  1  0.018094  0.069665  0.462539  1
  O  O17  1  0.509125  0.779208  0.439816  1
  O  O18  1  0.009125  0.220792  0.560184  1
