# generated using pymatgen
data_Hg3AsSe4Br
_symmetry_space_group_name_H-M   'P 1'
_cell_length_a   7.69277791
_cell_length_b   7.69277781
_cell_length_c   23.28755600
_cell_angle_alpha   90.00000000
_cell_angle_beta   90.00000000
_cell_angle_gamma   119.99999640
_symmetry_Int_Tables_number   1
_chemical_formula_structural   Hg3AsSe4Br
_chemical_formula_sum   'Hg3 As1 Se4 Br1'
_cell_volume   1193.49593312
_cell_formula_units_Z   1
loop_
 _symmetry_equiv_pos_site_id
 _symmetry_equiv_pos_as_xyz
  1  'x, y, z'
loop_
 _atom_site_type_symbol
 _atom_site_label
 _atom_site_symmetry_multiplicity
 _atom_site_fract_x
 _atom_site_fract_y
 _atom_site_fract_z
 _atom_site_occupancy
  Hg  Hg1  1  0.668607  0.834303  0.505259  1
  Hg  Hg2  1  0.165697  0.834303  0.505259  1
  Hg  Hg3  1  0.165697  0.331393  0.505259  1
  As  As4  1  0.666667  0.333333  0.499156  1
  Se  Se5  1  0.511585  0.023169  0.443978  1
  Se  Se6  1  -0.000000  -0.000000  0.564874  1
  Se  Se7  1  0.976831  0.488415  0.443978  1
  Se  Se8  1  0.511585  0.488415  0.443978  1
  Br  Br9  1  0.333333  0.666667  0.588259  1
