# generated using pymatgen
data_Re2O7
_symmetry_space_group_name_H-M   'P 1'
_cell_length_a   5.23648414
_cell_length_b   5.38721113
_cell_length_c   27.06110639
_cell_angle_alpha   90.00000000
_cell_angle_beta   90.00000000
_cell_angle_gamma   90.00000000
_symmetry_Int_Tables_number   1
_chemical_formula_structural   Re2O7
_chemical_formula_sum   'Re4 O14'
_cell_volume   763.39504636
_cell_formula_units_Z   2
loop_
 _symmetry_equiv_pos_site_id
 _symmetry_equiv_pos_as_xyz
  1  'x, y, z'
loop_
 _atom_site_type_symbol
 _atom_site_label
 _atom_site_symmetry_multiplicity
 _atom_site_fract_x
 _atom_site_fract_y
 _atom_site_fract_z
 _atom_site_occupancy
  Re  Re1  1  0.744545  0.250000  0.571035  1
  Re  Re2  1  0.744545  0.250000  0.428965  1
  Re  Re3  1  0.255456  0.750000  0.428965  1
  Re  Re4  1  0.255456  0.750000  0.571035  1
  O  O5  1  0.347014  0.750000  0.632830  1
  O  O6  1  0.347013  0.750000  0.367170  1
  O  O7  1  0.652987  0.250000  0.367170  1
  O  O8  1  0.652987  0.250000  0.632830  1
  O  O9  1  0.500000  0.000000  0.554465  1
  O  O10  1  0.500000  0.500000  0.445535  1
  O  O11  1  0.500000  0.000000  0.445535  1
  O  O12  1  0.500000  0.500000  0.554465  1
  O  O13  1  -0.000000  -0.000000  0.578713  1
  O  O14  1  -0.000000  0.500000  0.421287  1
  O  O15  1  0.826446  0.250000  0.500000  1
  O  O16  1  0.173554  0.750000  0.500000  1
  O  O17  1  -0.000000  0.500000  0.578713  1
  O  O18  1  -0.000000  0.000000  0.421287  1
