# generated using pymatgen
data_SbO2
_symmetry_space_group_name_H-M   'P 1'
_cell_length_a   6.35903652
_cell_length_b   7.46463202
_cell_length_c   33.02373500
_cell_angle_alpha   90.00000000
_cell_angle_beta   90.00000000
_cell_angle_gamma   63.12249745
_symmetry_Int_Tables_number   1
_chemical_formula_structural   SbO2
_chemical_formula_sum   'Sb12 O24'
_cell_volume   1398.23010886
_cell_formula_units_Z   12
loop_
 _symmetry_equiv_pos_site_id
 _symmetry_equiv_pos_as_xyz
  1  'x, y, z'
loop_
 _atom_site_type_symbol
 _atom_site_label
 _atom_site_symmetry_multiplicity
 _atom_site_fract_x
 _atom_site_fract_y
 _atom_site_fract_z
 _atom_site_occupancy
  Sb  Sb1  1  0.447783  0.285746  0.643080  1
  Sb  Sb2  1  0.979122  0.687390  0.657704  1
  Sb  Sb3  1  0.077560  0.990831  0.513715  1
  Sb  Sb4  1  0.919745  0.290069  0.643285  1
  Sb  Sb5  1  0.611921  0.406311  0.522824  1
  Sb  Sb6  1  0.404487  0.847182  0.437526  1
  Sb  Sb7  1  0.391175  0.886200  0.621917  1
  Sb  Sb8  1  0.753938  0.561906  0.357709  1
  Sb  Sb9  1  0.588013  0.989895  0.513081  1
  Sb  Sb10  1  0.233577  0.136221  0.360150  1
  Sb  Sb11  1  0.126798  0.766675  0.353185  1
  Sb  Sb12  1  0.675234  0.168131  0.294582  1
  O  O13  1  0.821362  0.529514  0.679013  1
  O  O14  1  0.101537  0.446808  0.616023  1
  O  O15  1  0.265120  0.132102  0.667592  1
  O  O16  1  0.300320  0.524700  0.679228  1
  O  O17  1  0.437021  0.254222  0.539028  1
  O  O18  1  0.560065  0.044979  0.607846  1
  O  O19  1  0.752988  0.141570  0.482139  1
  O  O20  1  0.618791  0.407824  0.608965  1
  O  O21  1  0.743502  0.176573  0.675590  1
  O  O22  1  0.903368  0.856245  0.539637  1
  O  O23  1  0.946913  0.254720  0.539649  1
  O  O24  1  0.056039  0.047785  0.608170  1
  O  O25  1  0.097309  0.976910  0.395378  1
  O  O26  1  0.211776  0.765091  0.471798  1
  O  O27  1  0.273372  0.091430  0.474720  1
  O  O28  1  0.277068  0.913154  0.322058  1
  O  O29  1  0.392242  0.880306  0.544777  1
  O  O30  1  0.518680  0.600319  0.401127  1
  O  O31  1  0.506307  0.989837  0.395023  1
  O  O32  1  0.688015  0.768398  0.470638  1
  O  O33  1  0.830550  0.285364  0.332995  1
  O  O34  1  0.828288  0.905579  0.320383  1
  O  O35  1  0.050820  0.391549  0.388075  1
  O  O36  1  0.362375  0.264382  0.321391  1
