# generated using pymatgen
data_Fe4Cu2S7
_symmetry_space_group_name_H-M   'P 1'
_cell_length_a   5.14323376
_cell_length_b   8.11651176
_cell_length_c   23.79073600
_cell_angle_alpha   90.00000000
_cell_angle_beta   90.00000000
_cell_angle_gamma   90.00000000
_symmetry_Int_Tables_number   1
_chemical_formula_structural   Fe4Cu2S7
_chemical_formula_sum   'Fe4 Cu2 S7'
_cell_volume   993.14706491
_cell_formula_units_Z   1
loop_
 _symmetry_equiv_pos_site_id
 _symmetry_equiv_pos_as_xyz
  1  'x, y, z'
loop_
 _atom_site_type_symbol
 _atom_site_label
 _atom_site_symmetry_multiplicity
 _atom_site_fract_x
 _atom_site_fract_y
 _atom_site_fract_z
 _atom_site_occupancy
  Fe  Fe1  1  0.249686  0.345782  0.513265  1
  Fe  Fe2  1  0.750314  0.654218  0.513265  1
  Fe  Fe3  1  0.750314  0.345782  0.513265  1
  Fe  Fe4  1  0.249686  0.654218  0.513265  1
  Cu  Cu5  1  0.244701  -0.000000  0.488429  1
  Cu  Cu6  1  0.755299  -0.000000  0.488429  1
  S  S7  1  0.500000  0.219666  0.456008  1
  S  S8  1  0.500000  0.780334  0.456008  1
  S  S9  1  0.000000  0.500000  0.460546  1
  S  S10  1  0.000000  -0.000000  0.409339  1
  S  S11  1  0.000000  0.806053  0.561246  1
  S  S12  1  0.000000  0.193947  0.561246  1
  S  S13  1  0.500000  0.500000  0.565691  1
