# generated using pymatgen
data_SmH2ClO2
_symmetry_space_group_name_H-M   'P 1'
_cell_length_a   3.69222307
_cell_length_b   6.34942075
_cell_length_c   25.70093216
_cell_angle_alpha   91.34548721
_cell_angle_beta   90.00000000
_cell_angle_gamma   90.00000000
_symmetry_Int_Tables_number   1
_chemical_formula_structural   SmH2ClO2
_chemical_formula_sum   'Sm2 H4 Cl2 O4'
_cell_volume   602.35310655
_cell_formula_units_Z   2
loop_
 _symmetry_equiv_pos_site_id
 _symmetry_equiv_pos_as_xyz
  1  'x, y, z'
loop_
 _atom_site_type_symbol
 _atom_site_label
 _atom_site_symmetry_multiplicity
 _atom_site_fract_x
 _atom_site_fract_y
 _atom_site_fract_z
 _atom_site_occupancy
  Sm  Sm1  1  0.750000  0.256015  0.530626  1
  Sm  Sm2  1  0.250000  0.743985  0.469374  1
  H  H3  1  0.750000  0.694965  0.557656  1
  H  H4  1  0.250000  0.938589  0.578056  1
  H  H5  1  0.750000  0.061411  0.421944  1
  H  H6  1  0.250000  0.305035  0.442344  1
  Cl  Cl7  1  0.250000  0.407477  0.606425  1
  Cl  Cl8  1  0.750000  0.592523  0.393575  1
  O  O9  1  0.750000  0.636637  0.522171  1
  O  O10  1  0.250000  0.994742  0.542950  1
  O  O11  1  0.750000  0.005258  0.457050  1
  O  O12  1  0.250000  0.363363  0.477829  1
