# generated using pymatgen
data_FeCuS2
_symmetry_space_group_name_H-M   'P 1'
_cell_length_a   3.78460241
_cell_length_b   3.78538373
_cell_length_c   22.96564500
_cell_angle_alpha   90.00000000
_cell_angle_beta   90.00000000
_cell_angle_gamma   60.10245529
_symmetry_Int_Tables_number   1
_chemical_formula_structural   FeCuS2
_chemical_formula_sum   'Fe1 Cu1 S2'
_cell_volume   285.22454461
_cell_formula_units_Z   1
loop_
 _symmetry_equiv_pos_site_id
 _symmetry_equiv_pos_as_xyz
  1  'x, y, z'
loop_
 _atom_site_type_symbol
 _atom_site_label
 _atom_site_symmetry_multiplicity
 _atom_site_fract_x
 _atom_site_fract_y
 _atom_site_fract_z
 _atom_site_occupancy
  Fe  Fe1  1  0.333729  0.333331  0.535733  1
  Cu  Cu2  1  0.667202  0.667233  0.461301  1
  S  S3  1  0.333498  0.333315  0.436930  1
  S  S4  1  0.667349  0.667105  0.566036  1
