# generated using pymatgen
data_K5NO4
_symmetry_space_group_name_H-M   'P 1'
_cell_length_a   4.50092246
_cell_length_b   5.72253380
_cell_length_c   27.71802600
_cell_angle_alpha   90.00000000
_cell_angle_beta   90.00000000
_cell_angle_gamma   95.54345696
_symmetry_Int_Tables_number   1
_chemical_formula_structural   K5NO4
_chemical_formula_sum   'K5 N1 O4'
_cell_volume   710.58548139
_cell_formula_units_Z   1
loop_
 _symmetry_equiv_pos_site_id
 _symmetry_equiv_pos_as_xyz
  1  'x, y, z'
loop_
 _atom_site_type_symbol
 _atom_site_label
 _atom_site_symmetry_multiplicity
 _atom_site_fract_x
 _atom_site_fract_y
 _atom_site_fract_z
 _atom_site_occupancy
  K  K1  1  0.402164  0.190510  0.344791  1
  K  K2  1  0.346422  0.539476  0.616270  1
  K  K3  1  0.562894  0.005786  0.528708  1
  K  K4  1  0.311715  0.428450  0.470412  1
  K  K5  1  0.902752  0.847651  0.425000  1
  N  N6  1  0.812357  0.513860  0.548495  1
  O  O7  1  0.002128  0.335527  0.553084  1
  O  O8  1  0.864297  0.688659  0.584205  1
  O  O9  1  0.832464  0.615244  0.503064  1
  O  O10  1  0.427536  0.050244  0.425971  1
