# generated using pymatgen
data_BaTl(CoO3)2
_symmetry_space_group_name_H-M   'P 1'
_cell_length_a   3.67454975
_cell_length_b   3.68293370
_cell_length_c   64.91841700
_cell_angle_alpha   90.00000000
_cell_angle_beta   90.00000000
_cell_angle_gamma   89.97764673
_symmetry_Int_Tables_number   1
_chemical_formula_structural   BaTl(CoO3)2
_chemical_formula_sum   'Ba2 Tl2 Co4 O12'
_cell_volume   878.54886229
_cell_formula_units_Z   2
loop_
 _symmetry_equiv_pos_site_id
 _symmetry_equiv_pos_as_xyz
  1  'x, y, z'
loop_
 _atom_site_type_symbol
 _atom_site_label
 _atom_site_symmetry_multiplicity
 _atom_site_fract_x
 _atom_site_fract_y
 _atom_site_fract_z
 _atom_site_occupancy
  Ba  Ba1  1  0.011112  0.003311  0.610373  1
  Ba  Ba2  1  0.989737  0.996575  0.389450  1
  Tl  Tl3  1  0.508632  0.501990  0.659505  1
  Tl  Tl4  1  0.486713  0.495735  0.340401  1
  Co  Co5  1  0.506853  0.505565  0.526308  1
  Co  Co6  1  0.493505  0.497344  0.424047  1
  Co  Co7  1  0.511846  0.504286  0.575412  1
  Co  Co8  1  0.502518  0.504248  0.473440  1
  O  O9  1  0.990052  0.497355  0.417952  1
  O  O10  1  0.006889  0.505533  0.527265  1
  O  O11  1  0.482242  0.506387  0.311417  1
  O  O12  1  0.502754  0.004295  0.473520  1
  O  O13  1  0.504085  0.508405  0.688498  1
  O  O14  1  0.511497  0.004198  0.580547  1
  O  O15  1  0.011743  0.503981  0.580349  1
  O  O16  1  0.488957  0.494328  0.372147  1
  O  O17  1  0.487584  0.997394  0.421655  1
  O  O18  1  0.506962  0.005589  0.527133  1
  O  O19  1  0.003015  0.504180  0.472805  1
  O  O20  1  0.511177  0.502037  0.627778  1
