# generated using pymatgen
data_GaPS4
_symmetry_space_group_name_H-M   'P 1'
_cell_length_a   7.76050841
_cell_length_b   12.03996879
_cell_length_c   23.39445297
_cell_angle_alpha   89.20333760
_cell_angle_beta   90.00000000
_cell_angle_gamma   90.00000000
_symmetry_Int_Tables_number   1
_chemical_formula_structural   GaPS4
_chemical_formula_sum   'Ga4 P4 S16'
_cell_volume   2185.67933829
_cell_formula_units_Z   4
loop_
 _symmetry_equiv_pos_site_id
 _symmetry_equiv_pos_as_xyz
  1  'x, y, z'
loop_
 _atom_site_type_symbol
 _atom_site_label
 _atom_site_symmetry_multiplicity
 _atom_site_fract_x
 _atom_site_fract_y
 _atom_site_fract_z
 _atom_site_occupancy
  Ga  Ga1  1  0.543836  0.829181  0.468751  1
  Ga  Ga2  1  0.043836  0.670819  0.531249  1
  Ga  Ga3  1  0.456164  0.170819  0.531249  1
  Ga  Ga4  1  0.956164  0.329181  0.468751  1
  P  P5  1  0.739586  0.086541  0.462419  1
  P  P6  1  0.760414  0.586541  0.462419  1
  P  P7  1  0.260414  0.913459  0.537581  1
  P  P8  1  0.239586  0.413459  0.537581  1
  S  S9  1  0.485884  0.838175  0.565612  1
  S  S10  1  0.985884  0.661825  0.434388  1
  S  S11  1  0.514116  0.161825  0.434388  1
  S  S12  1  0.014116  0.338175  0.565612  1
  S  S13  1  0.270209  0.899204  0.449591  1
  S  S14  1  0.770209  0.600796  0.550409  1
  S  S15  1  0.729791  0.100796  0.550409  1
  S  S16  1  0.229791  0.399204  0.449591  1
  S  S17  1  0.777485  0.925628  0.434433  1
  S  S18  1  0.277485  0.574372  0.565567  1
  S  S19  1  0.222515  0.074372  0.565567  1
  S  S20  1  0.722515  0.425628  0.434433  1
  S  S21  1  0.957821  0.157845  0.427160  1
  S  S22  1  0.542179  0.657845  0.427160  1
  S  S23  1  0.042179  0.842155  0.572840  1
  S  S24  1  0.457821  0.342155  0.572840  1
