# generated using pymatgen
data_CuSe2Cl
_symmetry_space_group_name_H-M   'P 1'
_cell_length_a   4.95176778
_cell_length_b   7.72332109
_cell_length_c   22.77988400
_cell_angle_alpha   90.00000000
_cell_angle_beta   90.00000000
_cell_angle_gamma   90.00000000
_symmetry_Int_Tables_number   1
_chemical_formula_structural   CuSe2Cl
_chemical_formula_sum   'Cu2 Se4 Cl2'
_cell_volume   871.19599147
_cell_formula_units_Z   2
loop_
 _symmetry_equiv_pos_site_id
 _symmetry_equiv_pos_as_xyz
  1  'x, y, z'
loop_
 _atom_site_type_symbol
 _atom_site_label
 _atom_site_symmetry_multiplicity
 _atom_site_fract_x
 _atom_site_fract_y
 _atom_site_fract_z
 _atom_site_occupancy
  Cu  Cu1  1  0.640367  0.614298  0.499640  1
  Cu  Cu2  1  0.140367  0.964225  0.500360  1
  Se  Se3  1  0.468494  0.150599  0.544674  1
  Se  Se4  1  0.968494  0.427924  0.455326  1
  Se  Se5  1  0.310188  0.430204  0.543478  1
  Se  Se6  1  0.810188  0.148319  0.456522  1
  Cl  Cl7  1  0.390371  0.791085  0.438252  1
  Cl  Cl8  1  0.890371  0.787438  0.561748  1
