# generated using pymatgen
data_FeO2
_symmetry_space_group_name_H-M   'P 1'
_cell_length_a   2.85817798
_cell_length_b   4.08590732
_cell_length_c   24.40212100
_cell_angle_alpha   90.00000000
_cell_angle_beta   90.00000000
_cell_angle_gamma   90.00000000
_symmetry_Int_Tables_number   1
_chemical_formula_structural   FeO2
_chemical_formula_sum   'Fe2 O4'
_cell_volume   284.97407763
_cell_formula_units_Z   2
loop_
 _symmetry_equiv_pos_site_id
 _symmetry_equiv_pos_as_xyz
  1  'x, y, z'
loop_
 _atom_site_type_symbol
 _atom_site_label
 _atom_site_symmetry_multiplicity
 _atom_site_fract_x
 _atom_site_fract_y
 _atom_site_fract_z
 _atom_site_occupancy
  Fe  Fe1  1  -0.000000  0.500000  0.539632  1
  Fe  Fe2  1  0.500000  0.000000  0.460368  1
  O  O3  1  0.500000  0.500000  0.483714  1
  O  O4  1  -0.000000  0.000000  0.516286  1
  O  O5  1  0.500000  0.500000  0.587199  1
  O  O6  1  -0.000000  0.000000  0.412801  1
