# generated using pymatgen
data_RhBr3
_symmetry_space_group_name_H-M   'P 1'
_cell_length_a   6.35161789
_cell_length_b   6.35161783
_cell_length_c   22.81937100
_cell_angle_alpha   90.00000000
_cell_angle_beta   90.00000000
_cell_angle_gamma   120.00076907
_symmetry_Int_Tables_number   1
_chemical_formula_structural   RhBr3
_chemical_formula_sum   'Rh2 Br6'
_cell_volume   797.25941790
_cell_formula_units_Z   2
loop_
 _symmetry_equiv_pos_site_id
 _symmetry_equiv_pos_as_xyz
  1  'x, y, z'
loop_
 _atom_site_type_symbol
 _atom_site_label
 _atom_site_symmetry_multiplicity
 _atom_site_fract_x
 _atom_site_fract_y
 _atom_site_fract_z
 _atom_site_occupancy
  Rh  Rh1  1  0.833305  0.166695  0.500000  1
  Rh  Rh2  1  0.166695  0.833305  0.500000  1
  Br  Br3  1  0.849737  0.849737  0.437581  1
  Br  Br4  1  0.150263  0.150263  0.562419  1
  Br  Br5  1  0.500021  0.849696  0.562459  1
  Br  Br6  1  0.150304  0.499979  0.437541  1
  Br  Br7  1  0.499979  0.150304  0.437541  1
  Br  Br8  1  0.849696  0.500021  0.562459  1
