# generated using pymatgen
data_Yb2Te5O13
_symmetry_space_group_name_H-M   'P 1'
_cell_length_a   7.10082565
_cell_length_b   8.91095857
_cell_length_c   29.18448600
_cell_angle_alpha   91.24532740
_cell_angle_beta   87.48377135
_cell_angle_gamma   103.13384847
_symmetry_Int_Tables_number   1
_chemical_formula_structural   Yb2Te5O13
_chemical_formula_sum   'Yb4 Te10 O26'
_cell_volume   1796.48305643
_cell_formula_units_Z   2
loop_
 _symmetry_equiv_pos_site_id
 _symmetry_equiv_pos_as_xyz
  1  'x, y, z'
loop_
 _atom_site_type_symbol
 _atom_site_label
 _atom_site_symmetry_multiplicity
 _atom_site_fract_x
 _atom_site_fract_y
 _atom_site_fract_z
 _atom_site_occupancy
  Yb  Yb1  1  0.530411  0.278693  0.407578  1
  Yb  Yb2  1  0.069142  0.466372  0.438262  1
  Yb  Yb3  1  0.930858  0.533628  0.561738  1
  Yb  Yb4  1  0.469589  0.721307  0.592422  1
  Te  Te5  1  0.222865  0.395708  0.320318  1
  Te  Te6  1  0.780313  0.158312  0.494830  1
  Te  Te7  1  0.599274  0.154052  0.616451  1
  Te  Te8  1  0.400726  0.845948  0.383549  1
  Te  Te9  1  0.011388  0.907021  0.602248  1
  Te  Te10  1  0.219687  0.841688  0.505170  1
  Te  Te11  1  0.988612  0.092979  0.397752  1
  Te  Te12  1  0.643733  0.635322  0.467985  1
  Te  Te13  1  0.777135  0.604292  0.679682  1
  Te  Te14  1  0.356267  0.364678  0.532015  1
  O  O15  1  0.751620  0.498131  0.431800  1
  O  O16  1  0.449308  0.351127  0.338459  1
  O  O17  1  0.795129  0.779451  0.576942  1
  O  O18  1  0.173890  0.534701  0.366003  1
  O  O19  1  0.382777  0.500620  0.467038  1
  O  O20  1  0.617223  0.499380  0.532962  1
  O  O21  1  0.857456  0.986792  0.469504  1
  O  O22  1  0.037459  0.661751  0.491786  1
  O  O23  1  0.246366  0.892249  0.439219  1
  O  O24  1  0.467860  0.822604  0.514663  1
  O  O25  1  0.974340  0.792158  0.661643  1
  O  O26  1  0.427503  0.263749  0.593296  1
  O  O27  1  0.204871  0.220549  0.423058  1
  O  O28  1  0.826110  0.465299  0.633997  1
  O  O29  1  0.962541  0.338249  0.508214  1
  O  O30  1  0.161310  0.767915  0.574865  1
  O  O31  1  0.563884  0.038113  0.378191  1
  O  O32  1  0.532140  0.177396  0.485337  1
  O  O33  1  0.550692  0.648873  0.661541  1
  O  O34  1  0.142544  0.013208  0.530496  1
  O  O35  1  0.753634  0.107751  0.560781  1
  O  O36  1  0.248380  0.501869  0.568200  1
  O  O37  1  0.025660  0.207842  0.338357  1
  O  O38  1  0.572497  0.736251  0.406704  1
  O  O39  1  0.436116  0.961887  0.621809  1
  O  O40  1  0.838690  0.232085  0.425135  1
