# generated using pymatgen
data_Zn(SbO2)2
_symmetry_space_group_name_H-M   'P 1'
_cell_length_a   3.10946905
_cell_length_b   9.70774166
_cell_length_c   24.48281830
_cell_angle_alpha   90.00000000
_cell_angle_beta   90.00000000
_cell_angle_gamma   90.00000000
_symmetry_Int_Tables_number   1
_chemical_formula_structural   Zn(SbO2)2
_chemical_formula_sum   'Zn2 Sb4 O8'
_cell_volume   739.03644935
_cell_formula_units_Z   2
loop_
 _symmetry_equiv_pos_site_id
 _symmetry_equiv_pos_as_xyz
  1  'x, y, z'
loop_
 _atom_site_type_symbol
 _atom_site_label
 _atom_site_symmetry_multiplicity
 _atom_site_fract_x
 _atom_site_fract_y
 _atom_site_fract_z
 _atom_site_occupancy
  Zn  Zn1  1  0.500000  0.247252  0.569044  1
  Zn  Zn2  1  0.500000  0.747252  0.430956  1
  Sb  Sb3  1  0.000000  0.430166  0.427711  1
  Sb  Sb4  1  0.000000  0.930166  0.572289  1
  Sb  Sb5  1  0.500000  0.565699  0.568730  1
  Sb  Sb6  1  0.500000  0.065699  0.431270  1
  O  O7  1  -0.000000  0.900119  0.430065  1
  O  O8  1  -0.000000  0.400119  0.569935  1
  O  O9  1  0.500000  0.950707  0.519700  1
  O  O10  1  0.500000  0.450707  0.480300  1
  O  O11  1  -0.000000  0.628873  0.409956  1
  O  O12  1  -0.000000  0.128873  0.590044  1
  O  O13  1  -0.000000  0.170149  0.472314  1
  O  O14  1  -0.000000  0.670149  0.527686  1
