# generated using pymatgen
data_Zr2CuGe4
_symmetry_space_group_name_H-M   'P 1'
_cell_length_a   3.80590115
_cell_length_b   3.80224601
_cell_length_c   34.95540300
_cell_angle_alpha   90.00000000
_cell_angle_beta   90.00000000
_cell_angle_gamma   90.00000000
_symmetry_Int_Tables_number   1
_chemical_formula_structural   Zr2CuGe4
_chemical_formula_sum   'Zr4 Cu2 Ge8'
_cell_volume   505.83867421
_cell_formula_units_Z   2
loop_
 _symmetry_equiv_pos_site_id
 _symmetry_equiv_pos_as_xyz
  1  'x, y, z'
loop_
 _atom_site_type_symbol
 _atom_site_label
 _atom_site_symmetry_multiplicity
 _atom_site_fract_x
 _atom_site_fract_y
 _atom_site_fract_z
 _atom_site_occupancy
  Zr  Zr1  1  0.500000  -0.000000  0.430391  1
  Zr  Zr2  1  0.000000  0.500000  0.569609  1
  Zr  Zr3  1  0.500000  -0.000000  0.695729  1
  Zr  Zr4  1  0.000000  0.500000  0.304271  1
  Cu  Cu5  1  0.000000  0.000000  0.499983  1
  Cu  Cu6  1  0.500000  0.500000  0.500017  1
  Ge  Ge7  1  0.500000  0.500000  0.368172  1
  Ge  Ge8  1  0.000000  0.000000  0.631828  1
  Ge  Ge9  1  0.500000  -0.000000  0.545907  1
  Ge  Ge10  1  -0.000000  0.500000  0.454093  1
  Ge  Ge11  1  -0.000000  0.500000  0.713041  1
  Ge  Ge12  1  0.500000  -0.000000  0.286959  1
  Ge  Ge13  1  -0.000000  0.000000  0.368136  1
  Ge  Ge14  1  0.500000  0.500000  0.631864  1
