# generated using pymatgen
data_UTeP
_symmetry_space_group_name_H-M   'P 1'
_cell_length_a   3.99301134
_cell_length_b   3.99338863
_cell_length_c   27.03495500
_cell_angle_alpha   90.00000000
_cell_angle_beta   90.00000000
_cell_angle_gamma   89.86671668
_symmetry_Int_Tables_number   1
_chemical_formula_structural   UTeP
_chemical_formula_sum   'U2 Te2 P2'
_cell_volume   431.08865808
_cell_formula_units_Z   2
loop_
 _symmetry_equiv_pos_site_id
 _symmetry_equiv_pos_as_xyz
  1  'x, y, z'
loop_
 _atom_site_type_symbol
 _atom_site_label
 _atom_site_symmetry_multiplicity
 _atom_site_fract_x
 _atom_site_fract_y
 _atom_site_fract_z
 _atom_site_occupancy
  U  U1  1  0.009734  0.187553  0.570992  1
  U  U2  1  0.008644  0.187678  0.429007  1
  Te  Te3  1  0.508652  0.686934  0.376707  1
  Te  Te4  1  0.510461  0.686647  0.623309  1
  P  P5  1  0.007743  0.687482  0.500000  1
  P  P6  1  0.508767  0.184706  0.499986  1
