# generated using pymatgen
data_TiAgF6
_symmetry_space_group_name_H-M   'P 1'
_cell_length_a   5.21048094
_cell_length_b   5.54958023
_cell_length_c   23.42074100
_cell_angle_alpha   90.00000000
_cell_angle_beta   90.00000000
_cell_angle_gamma   89.67499095
_symmetry_Int_Tables_number   1
_chemical_formula_structural   TiAgF6
_chemical_formula_sum   'Ti1 Ag1 F6'
_cell_volume   677.22283027
_cell_formula_units_Z   1
loop_
 _symmetry_equiv_pos_site_id
 _symmetry_equiv_pos_as_xyz
  1  'x, y, z'
loop_
 _atom_site_type_symbol
 _atom_site_label
 _atom_site_symmetry_multiplicity
 _atom_site_fract_x
 _atom_site_fract_y
 _atom_site_fract_z
 _atom_site_occupancy
  Ti  Ti1  1  0.500000  0.500000  0.500000  1
  Ag  Ag2  1  0.000000  -0.000000  0.500000  1
  F  F3  1  0.369828  0.529766  0.572043  1
  F  F4  1  0.630172  0.470234  0.427957  1
  F  F5  1  0.680486  0.209714  0.523817  1
  F  F6  1  0.319514  0.790286  0.476183  1
  F  F7  1  0.206821  0.308386  0.477723  1
  F  F8  1  0.793179  0.691614  0.522277  1
