# generated using pymatgen
data_LiAuF4
_symmetry_space_group_name_H-M   'P 1'
_cell_length_a   4.13859248
_cell_length_b   10.41781787
_cell_length_c   21.87598600
_cell_angle_alpha   90.00000000
_cell_angle_beta   90.00000000
_cell_angle_gamma   87.07548585
_symmetry_Int_Tables_number   1
_chemical_formula_structural   LiAuF4
_chemical_formula_sum   'Li2 Au2 F8'
_cell_volume   941.95699653
_cell_formula_units_Z   2
loop_
 _symmetry_equiv_pos_site_id
 _symmetry_equiv_pos_as_xyz
  1  'x, y, z'
loop_
 _atom_site_type_symbol
 _atom_site_label
 _atom_site_symmetry_multiplicity
 _atom_site_fract_x
 _atom_site_fract_y
 _atom_site_fract_z
 _atom_site_occupancy
  Li  Li1  1  0.750020  0.499962  0.515633  1
  Li  Li2  1  0.750020  0.999962  0.484367  1
  Au  Au3  1  0.249976  0.249975  0.500007  1
  Au  Au4  1  0.249976  0.749975  0.499993  1
  F  F5  1  0.543660  0.375236  0.466871  1
  F  F6  1  0.543660  0.875236  0.533129  1
  F  F7  1  0.056313  0.883799  0.446217  1
  F  F8  1  0.056313  0.383799  0.553783  1
  F  F9  1  0.443601  0.616219  0.553771  1
  F  F10  1  0.443601  0.116219  0.446229  1
  F  F11  1  0.956434  0.124815  0.533132  1
  F  F12  1  0.956434  0.624815  0.466868  1
