# generated using pymatgen
data_ZnGeN2
_symmetry_space_group_name_H-M   'P 1'
_cell_length_a   5.53598880
_cell_length_b   6.46800354
_cell_length_c   23.59630400
_cell_angle_alpha   90.00000000
_cell_angle_beta   90.00000000
_cell_angle_gamma   90.00000000
_symmetry_Int_Tables_number   1
_chemical_formula_structural   ZnGeN2
_chemical_formula_sum   'Zn4 Ge4 N8'
_cell_volume   844.90802376
_cell_formula_units_Z   4
loop_
 _symmetry_equiv_pos_site_id
 _symmetry_equiv_pos_as_xyz
  1  'x, y, z'
loop_
 _atom_site_type_symbol
 _atom_site_label
 _atom_site_symmetry_multiplicity
 _atom_site_fract_x
 _atom_site_fract_y
 _atom_site_fract_z
 _atom_site_occupancy
  Zn  Zn1  1  0.576203  0.112874  0.563471  1
  Zn  Zn2  1  0.923797  0.612874  0.436529  1
  Zn  Zn3  1  0.423797  0.887126  0.436529  1
  Zn  Zn4  1  0.076203  0.387126  0.563471  1
  Ge  Ge5  1  0.582391  0.635217  0.541877  1
  Ge  Ge6  1  0.917609  0.135217  0.458123  1
  Ge  Ge7  1  0.417609  0.364783  0.458123  1
  Ge  Ge8  1  0.082391  0.864783  0.541877  1
  N  N9  1  0.922643  0.121866  0.543351  1
  N  N10  1  0.577357  0.621866  0.456649  1
  N  N11  1  0.077357  0.878134  0.456649  1
  N  N12  1  0.422643  0.378134  0.543351  1
  N  N13  1  0.898193  0.644098  0.566275  1
  N  N14  1  0.601807  0.144098  0.433725  1
  N  N15  1  0.101807  0.355902  0.433725  1
  N  N16  1  0.398193  0.855902  0.566275  1
