# generated using pymatgen
data_Li2Mn(PO4)2
_symmetry_space_group_name_H-M   'P 1'
_cell_length_a   4.75364537
_cell_length_b   4.90546007
_cell_length_c   29.10511700
_cell_angle_alpha   90.00000000
_cell_angle_beta   90.00000000
_cell_angle_gamma   63.55802907
_symmetry_Int_Tables_number   1
_chemical_formula_structural   Li2Mn(PO4)2
_chemical_formula_sum   'Li2 Mn1 P2 O8'
_cell_volume   607.69558620
_cell_formula_units_Z   1
loop_
 _symmetry_equiv_pos_site_id
 _symmetry_equiv_pos_as_xyz
  1  'x, y, z'
loop_
 _atom_site_type_symbol
 _atom_site_label
 _atom_site_symmetry_multiplicity
 _atom_site_fract_x
 _atom_site_fract_y
 _atom_site_fract_z
 _atom_site_occupancy
  Li  Li1  1  0.075556  0.276796  0.395898  1
  Li  Li2  1  0.924444  0.723204  0.604102  1
  Mn  Mn3  1  0.000000  0.500000  0.500000  1
  P  P4  1  0.652064  0.141120  0.447695  1
  P  P5  1  0.347936  0.858880  0.552305  1
  O  O6  1  0.762260  0.154749  0.399000  1
  O  O7  1  0.791443  0.264596  0.485163  1
  O  O8  1  0.285443  0.190049  0.539729  1
  O  O9  1  0.282099  0.333770  0.447130  1
  O  O10  1  0.717901  0.666230  0.552870  1
  O  O11  1  0.714557  0.809951  0.460271  1
  O  O12  1  0.208557  0.735404  0.514837  1
  O  O13  1  0.237740  0.845251  0.601000  1
