# generated using pymatgen
data_NbNiTe5
_symmetry_space_group_name_H-M   'P 1'
_cell_length_a   3.72997119
_cell_length_b   15.14849857
_cell_length_c   24.60156400
_cell_angle_alpha   90.00000000
_cell_angle_beta   90.00000000
_cell_angle_gamma   90.00000000
_symmetry_Int_Tables_number   1
_chemical_formula_structural   NbNiTe5
_chemical_formula_sum   'Nb2 Ni2 Te10'
_cell_volume   1390.07356707
_cell_formula_units_Z   2
loop_
 _symmetry_equiv_pos_site_id
 _symmetry_equiv_pos_as_xyz
  1  'x, y, z'
loop_
 _atom_site_type_symbol
 _atom_site_label
 _atom_site_symmetry_multiplicity
 _atom_site_fract_x
 _atom_site_fract_y
 _atom_site_fract_z
 _atom_site_occupancy
  Nb  Nb1  1  -0.000000  0.250000  0.495669  1
  Nb  Nb2  1  0.000000  0.750000  0.504331  1
  Ni  Ni3  1  0.500000  -0.000000  0.500000  1
  Ni  Ni4  1  0.500000  0.500000  0.500000  1
  Te  Te5  1  -0.000000  0.074803  0.443276  1
  Te  Te6  1  0.000000  0.925197  0.556724  1
  Te  Te7  1  -0.000000  0.574803  0.556724  1
  Te  Te8  1  0.000000  0.425197  0.443276  1
  Te  Te9  1  0.500000  0.250000  0.407086  1
  Te  Te10  1  0.500000  0.750000  0.592914  1
  Te  Te11  1  0.500000  0.854653  0.442816  1
  Te  Te12  1  0.500000  0.145347  0.557184  1
  Te  Te13  1  0.500000  0.354653  0.557184  1
  Te  Te14  1  0.500000  0.645347  0.442816  1
