# generated using pymatgen
data_PPdS
_symmetry_space_group_name_H-M   'P 1'
_cell_length_a   5.71390584
_cell_length_b   5.75083463
_cell_length_c   24.18030800
_cell_angle_alpha   90.00000000
_cell_angle_beta   90.00000000
_cell_angle_gamma   90.00000000
_symmetry_Int_Tables_number   1
_chemical_formula_structural   PPdS
_chemical_formula_sum   'P4 Pd4 S4'
_cell_volume   794.55833361
_cell_formula_units_Z   4
loop_
 _symmetry_equiv_pos_site_id
 _symmetry_equiv_pos_as_xyz
  1  'x, y, z'
loop_
 _atom_site_type_symbol
 _atom_site_label
 _atom_site_symmetry_multiplicity
 _atom_site_fract_x
 _atom_site_fract_y
 _atom_site_fract_z
 _atom_site_occupancy
  P  P1  1  0.868125  0.719253  0.545839  1
  P  P2  1  0.868125  0.780747  0.454161  1
  P  P3  1  0.131875  0.219253  0.545839  1
  P  P4  1  0.131875  0.280747  0.454161  1
  Pd  Pd5  1  0.750316  0.160028  0.437508  1
  Pd  Pd6  1  0.750316  0.339972  0.562492  1
  Pd  Pd7  1  0.249684  0.839972  0.562492  1
  Pd  Pd8  1  0.249684  0.660028  0.437508  1
  S  S9  1  0.362598  0.453981  0.586628  1
  S  S10  1  0.637402  0.953981  0.586628  1
  S  S11  1  0.362598  0.046019  0.413372  1
  S  S12  1  0.637402  0.546019  0.413372  1
