# generated using pymatgen
data_AgHgSI
_symmetry_space_group_name_H-M   'P 1'
_cell_length_a   4.52647532
_cell_length_b   10.23672011
_cell_length_c   30.66892793
_cell_angle_alpha   90.00000000
_cell_angle_beta   90.00000000
_cell_angle_gamma   90.00000000
_symmetry_Int_Tables_number   1
_chemical_formula_structural   AgHgSI
_chemical_formula_sum   'Ag4 Hg4 S4 I4'
_cell_volume   1421.08344718
_cell_formula_units_Z   4
loop_
 _symmetry_equiv_pos_site_id
 _symmetry_equiv_pos_as_xyz
  1  'x, y, z'
loop_
 _atom_site_type_symbol
 _atom_site_label
 _atom_site_symmetry_multiplicity
 _atom_site_fract_x
 _atom_site_fract_y
 _atom_site_fract_z
 _atom_site_occupancy
  Ag  Ag1  1  -0.000000  0.415413  0.601696  1
  Ag  Ag2  1  -0.000000  0.915413  0.398304  1
  Ag  Ag3  1  0.000000  0.584587  0.398304  1
  Ag  Ag4  1  0.000000  0.084587  0.601696  1
  Hg  Hg5  1  0.500000  0.750000  0.579786  1
  Hg  Hg6  1  0.500000  -0.000000  0.500000  1
  Hg  Hg7  1  0.500000  0.250000  0.420214  1
  Hg  Hg8  1  0.500000  0.500000  0.500000  1
  S  S9  1  0.500000  0.515463  0.579947  1
  S  S10  1  0.500000  0.484537  0.420053  1
  S  S11  1  0.500000  0.984537  0.579947  1
  S  S12  1  0.500000  0.015463  0.420053  1
  I  I13  1  -0.000000  0.750000  0.490606  1
  I  I14  1  0.000000  0.250000  0.671247  1
  I  I15  1  -0.000000  0.250000  0.509394  1
  I  I16  1  0.000000  0.750000  0.328753  1
