# generated using pymatgen
data_Co2Te3O8
_symmetry_space_group_name_H-M   'P 1'
_cell_length_a   5.16282811
_cell_length_b   6.89235108
_cell_length_c   25.10318100
_cell_angle_alpha   90.00000000
_cell_angle_beta   90.00000000
_cell_angle_gamma   68.00453753
_symmetry_Int_Tables_number   1
_chemical_formula_structural   Co2Te3O8
_chemical_formula_sum   'Co2 Te3 O8'
_cell_volume   828.25405331
_cell_formula_units_Z   1
loop_
 _symmetry_equiv_pos_site_id
 _symmetry_equiv_pos_as_xyz
  1  'x, y, z'
loop_
 _atom_site_type_symbol
 _atom_site_label
 _atom_site_symmetry_multiplicity
 _atom_site_fract_x
 _atom_site_fract_y
 _atom_site_fract_z
 _atom_site_occupancy
  Co  Co1  1  0.331077  0.406680  0.458319  1
  Co  Co2  1  0.737757  0.593320  0.541681  1
  Te  Te3  1  0.898344  -0.000000  0.500000  1
  Te  Te4  1  0.405284  0.357016  0.593104  1
  Te  Te5  1  0.762300  0.642984  0.406896  1
  O  O6  1  0.065569  0.389825  0.399382  1
  O  O7  1  0.455393  0.610175  0.600618  1
  O  O8  1  0.581978  0.576507  0.466458  1
  O  O9  1  0.158485  0.423493  0.533542  1
  O  O10  1  0.599390  0.121287  0.452242  1
  O  O11  1  0.720677  0.878713  0.547758  1
  O  O12  1  0.009175  0.734472  0.448046  1
  O  O13  1  0.743647  0.265528  0.551954  1
