# generated using pymatgen
data_Hg3AsSe4I
_symmetry_space_group_name_H-M   'P 1'
_cell_length_a   7.75249918
_cell_length_b   7.75249879
_cell_length_c   23.50990600
_cell_angle_alpha   90.00000000
_cell_angle_beta   90.00000000
_cell_angle_gamma   120.00000167
_symmetry_Int_Tables_number   1
_chemical_formula_structural   Hg3AsSe4I
_chemical_formula_sum   'Hg3 As1 Se4 I1'
_cell_volume   1223.67180388
_cell_formula_units_Z   1
loop_
 _symmetry_equiv_pos_site_id
 _symmetry_equiv_pos_as_xyz
  1  'x, y, z'
loop_
 _atom_site_type_symbol
 _atom_site_label
 _atom_site_symmetry_multiplicity
 _atom_site_fract_x
 _atom_site_fract_y
 _atom_site_fract_z
 _atom_site_occupancy
  Hg  Hg1  1  0.500663  0.001327  0.503929  1
  Hg  Hg2  1  0.500663  0.499336  0.503929  1
  Hg  Hg3  1  0.998673  0.499336  0.503929  1
  As  As4  1  -0.000000  -0.000000  0.499666  1
  Se  Se5  1  0.846623  0.153376  0.444173  1
  Se  Se6  1  0.846623  0.693246  0.444173  1
  Se  Se7  1  0.306754  0.153376  0.444173  1
  Se  Se8  1  0.333333  0.666667  0.560382  1
  I  I9  1  0.666667  0.333333  0.595645  1
