# generated using pymatgen
data_CaAsH5O6
_symmetry_space_group_name_H-M   'P 1'
_cell_length_a   5.89582887
_cell_length_b   6.18978533
_cell_length_c   28.03028700
_cell_angle_alpha   90.00000000
_cell_angle_beta   90.00000000
_cell_angle_gamma   114.11478650
_symmetry_Int_Tables_number   1
_chemical_formula_structural   CaAsH5O6
_chemical_formula_sum   'Ca2 As2 H10 O12'
_cell_volume   933.66212267
_cell_formula_units_Z   2
loop_
 _symmetry_equiv_pos_site_id
 _symmetry_equiv_pos_as_xyz
  1  'x, y, z'
loop_
 _atom_site_type_symbol
 _atom_site_label
 _atom_site_symmetry_multiplicity
 _atom_site_fract_x
 _atom_site_fract_y
 _atom_site_fract_z
 _atom_site_occupancy
  Ca  Ca1  1  0.736047  0.988791  0.458152  1
  Ca  Ca2  1  0.736047  0.488791  0.541848  1
  As  As3  1  0.242586  0.509423  0.457114  1
  As  As4  1  0.242586  0.009423  0.542886  1
  H  H5  1  0.346052  0.192679  0.452634  1
  H  H6  1  0.346052  0.692679  0.547366  1
  H  H7  1  0.850011  0.778634  0.370585  1
  H  H8  1  0.850011  0.278634  0.629415  1
  H  H9  1  0.040961  0.750691  0.408407  1
  H  H10  1  0.040961  0.250691  0.591593  1
  H  H11  1  0.705654  0.212021  0.357174  1
  H  H12  1  0.705655  0.712021  0.642826  1
  H  H13  1  0.753612  0.400546  0.398109  1
  H  H14  1  0.753612  0.900546  0.601891  1
  O  O15  1  0.751941  0.243038  0.390537  1
  O  O16  1  0.860389  0.233631  0.596424  1
  O  O17  1  0.860389  0.733631  0.403576  1
  O  O18  1  0.751941  0.743038  0.609463  1
  O  O19  1  0.258953  0.257854  0.429218  1
  O  O20  1  0.258953  0.757854  0.570782  1
  O  O21  1  0.956106  0.396589  0.482675  1
  O  O22  1  0.956106  0.896589  0.517325  1
  O  O23  1  0.299832  0.732185  0.417153  1
  O  O24  1  0.299832  0.232185  0.582847  1
  O  O25  1  0.474961  0.619420  0.499061  1
  O  O26  1  0.474961  0.119420  0.500939  1
