# generated using pymatgen
data_BaCuReO5
_symmetry_space_group_name_H-M   'P 1'
_cell_length_a   3.79216343
_cell_length_b   3.79216343
_cell_length_c   25.26303609
_cell_angle_alpha   90.00000000
_cell_angle_beta   90.00000000
_cell_angle_gamma   90.00000000
_symmetry_Int_Tables_number   1
_chemical_formula_structural   BaCuReO5
_chemical_formula_sum   'Ba1 Cu1 Re1 O5'
_cell_volume   363.29517840
_cell_formula_units_Z   1
loop_
 _symmetry_equiv_pos_site_id
 _symmetry_equiv_pos_as_xyz
  1  'x, y, z'
loop_
 _atom_site_type_symbol
 _atom_site_label
 _atom_site_symmetry_multiplicity
 _atom_site_fract_x
 _atom_site_fract_y
 _atom_site_fract_z
 _atom_site_occupancy
  Ba  Ba1  1  -0.000000  -0.000000  0.480970  1
  Cu  Cu2  1  0.500000  0.500000  0.393898  1
  Re  Re3  1  0.500000  0.500000  0.593362  1
  O  O4  1  0.500000  0.000000  0.597915  1
  O  O5  1  0.000000  0.500000  0.597915  1
  O  O6  1  0.500000  0.000000  0.408622  1
  O  O7  1  0.000000  0.500000  0.408622  1
  O  O8  1  0.500000  0.500000  0.518696  1
