# generated using pymatgen
data_HgIBr
_symmetry_space_group_name_H-M   'P 1'
_cell_length_a   4.27353211
_cell_length_b   4.27353179
_cell_length_c   23.44129337
_cell_angle_alpha   87.34764102
_cell_angle_beta   92.65235907
_cell_angle_gamma   111.90221983
_symmetry_Int_Tables_number   1
_chemical_formula_structural   HgIBr
_chemical_formula_sum   'Hg1 I1 Br1'
_cell_volume   396.58989276
_cell_formula_units_Z   1
loop_
 _symmetry_equiv_pos_site_id
 _symmetry_equiv_pos_as_xyz
  1  'x, y, z'
loop_
 _atom_site_type_symbol
 _atom_site_label
 _atom_site_symmetry_multiplicity
 _atom_site_fract_x
 _atom_site_fract_y
 _atom_site_fract_z
 _atom_site_occupancy
  Hg  Hg1  1  0.829070  0.170930  0.502152  1
  I  I2  1  0.097060  0.902940  0.425349  1
  Br  Br3  1  0.572352  0.427648  0.572499  1
