# generated using pymatgen
data_Nb4IrSe10
_symmetry_space_group_name_H-M   'P 1'
_cell_length_a   6.07591061
_cell_length_b   9.30353603
_cell_length_c   23.40647800
_cell_angle_alpha   90.00000000
_cell_angle_beta   90.00000000
_cell_angle_gamma   72.41378063
_symmetry_Int_Tables_number   1
_chemical_formula_structural   Nb4IrSe10
_chemical_formula_sum   'Nb4 Ir1 Se10'
_cell_volume   1261.27094893
_cell_formula_units_Z   1
loop_
 _symmetry_equiv_pos_site_id
 _symmetry_equiv_pos_as_xyz
  1  'x, y, z'
loop_
 _atom_site_type_symbol
 _atom_site_label
 _atom_site_symmetry_multiplicity
 _atom_site_fract_x
 _atom_site_fract_y
 _atom_site_fract_z
 _atom_site_occupancy
  Nb  Nb1  1  0.659446  0.801324  0.499981  1
  Nb  Nb2  1  0.742933  0.408333  0.501702  1
  Nb  Nb3  1  0.091237  0.003322  0.498298  1
  Nb  Nb4  1  0.174724  0.610331  0.500019  1
  Ir  Ir5  1  0.417085  0.205828  0.500000  1
  Se  Se6  1  0.379989  0.009945  0.573493  1
  Se  Se7  1  0.081196  0.217004  0.432561  1
  Se  Se8  1  0.531901  0.611562  0.570074  1
  Se  Se9  1  0.302269  0.800093  0.429926  1
  Se  Se10  1  0.752974  0.194651  0.567439  1
  Se  Se11  1  0.454182  0.401711  0.426507  1
  Se  Se12  1  0.966028  0.812496  0.573203  1
  Se  Se13  1  0.699137  0.013450  0.436287  1
  Se  Se14  1  0.135033  0.398206  0.563713  1
  Se  Se15  1  0.868142  0.599159  0.426797  1
