# generated using pymatgen
data_SbO2
_symmetry_space_group_name_H-M   'P 1'
_cell_length_a   3.20260221
_cell_length_b   10.63777201
_cell_length_c   22.75000600
_cell_angle_alpha   89.82350057
_cell_angle_beta   90.00000000
_cell_angle_gamma   90.00000000
_symmetry_Int_Tables_number   1
_chemical_formula_structural   SbO2
_chemical_formula_sum   'Sb4 O8'
_cell_volume   775.05608815
_cell_formula_units_Z   4
loop_
 _symmetry_equiv_pos_site_id
 _symmetry_equiv_pos_as_xyz
  1  'x, y, z'
loop_
 _atom_site_type_symbol
 _atom_site_label
 _atom_site_symmetry_multiplicity
 _atom_site_fract_x
 _atom_site_fract_y
 _atom_site_fract_z
 _atom_site_occupancy
  Sb  Sb1  1  0.500000  0.922653  0.555332  1
  Sb  Sb2  1  -0.000000  0.070619  0.444688  1
  Sb  Sb3  1  0.000000  0.629401  0.485761  1
  Sb  Sb4  1  0.500000  0.363941  0.514193  1
  O  O5  1  0.500000  0.551741  0.538601  1
  O  O6  1  -0.000000  0.441603  0.461398  1
  O  O7  1  0.500000  0.213796  0.464722  1
  O  O8  1  -0.000000  0.779508  0.535297  1
  O  O9  1  0.500000  0.942034  0.464661  1
  O  O10  1  -0.000000  0.051194  0.535368  1
  O  O11  1  0.500000  0.669781  0.436773  1
  O  O12  1  -0.000000  0.323489  0.563207  1
