# generated using pymatgen
data_TaTe2
_symmetry_space_group_name_H-M   'P 1'
_cell_length_a   10.92864988
_cell_length_b   11.04924403
_cell_length_c   24.08481200
_cell_angle_alpha   90.00000000
_cell_angle_beta   90.00000000
_cell_angle_gamma   60.36039128
_symmetry_Int_Tables_number   1
_chemical_formula_structural   TaTe2
_chemical_formula_sum   'Ta9 Te18'
_cell_volume   2527.77667074
_cell_formula_units_Z   9
loop_
 _symmetry_equiv_pos_site_id
 _symmetry_equiv_pos_as_xyz
  1  'x, y, z'
loop_
 _atom_site_type_symbol
 _atom_site_label
 _atom_site_symmetry_multiplicity
 _atom_site_fract_x
 _atom_site_fract_y
 _atom_site_fract_z
 _atom_site_occupancy
  Ta  Ta1  1  0.806672  0.714016  0.500801  1
  Ta  Ta2  1  0.520690  0.285984  0.499199  1
  Ta  Ta3  1  0.193328  0.285984  0.499199  1
  Ta  Ta4  1  0.479310  0.714016  0.500801  1
  Ta  Ta5  1  0.856638  0.286724  0.496537  1
  Ta  Ta6  1  0.143362  0.713276  0.503463  1
  Ta  Ta7  1  0.198037  1.000000  0.500000  1
  Ta  Ta8  1  0.801963  0.000000  0.500000  1
  Ta  Ta9  1  0.500000  -0.000000  0.500000  1
  Te  Te10  1  0.943258  0.445232  0.561972  1
  Te  Te11  1  0.388489  0.554768  0.438028  1
  Te  Te12  1  0.056742  0.554768  0.438028  1
  Te  Te13  1  0.611511  0.445232  0.561972  1
  Te  Te14  1  0.723601  0.552799  0.436568  1
  Te  Te15  1  0.276399  0.447201  0.563432  1
  Te  Te16  1  0.713802  0.894471  0.413921  1
  Te  Te17  1  0.608273  0.105529  0.586079  1
  Te  Te18  1  0.286198  0.105529  0.586079  1
  Te  Te19  1  0.390048  0.219903  0.415696  1
  Te  Te20  1  0.609952  0.780097  0.584304  1
  Te  Te21  1  0.720200  0.217643  0.416211  1
  Te  Te22  1  0.937844  0.782357  0.583789  1
  Te  Te23  1  0.279800  0.782357  0.583789  1
  Te  Te24  1  0.062156  0.217643  0.416211  1
  Te  Te25  1  0.046621  0.906757  0.424580  1
  Te  Te26  1  0.953379  0.093243  0.575420  1
  Te  Te27  1  0.391727  0.894471  0.413921  1
