# generated using pymatgen
data_YbCl3
_symmetry_space_group_name_H-M   'P 1'
_cell_length_a   6.11628309
_cell_length_b   7.20887727
_cell_length_c   22.45413100
_cell_angle_alpha   90.00000000
_cell_angle_beta   90.00000000
_cell_angle_gamma   64.89877148
_symmetry_Int_Tables_number   1
_chemical_formula_structural   YbCl3
_chemical_formula_sum   'Yb2 Cl6'
_cell_volume   896.53768750
_cell_formula_units_Z   2
loop_
 _symmetry_equiv_pos_site_id
 _symmetry_equiv_pos_as_xyz
  1  'x, y, z'
loop_
 _atom_site_type_symbol
 _atom_site_label
 _atom_site_symmetry_multiplicity
 _atom_site_fract_x
 _atom_site_fract_y
 _atom_site_fract_z
 _atom_site_occupancy
  Yb  Yb1  1  0.857629  0.284743  0.500000  1
  Yb  Yb2  1  0.142371  0.715257  0.500000  1
  Cl  Cl3  1  0.571882  0.661141  0.446745  1
  Cl  Cl4  1  0.428118  0.338859  0.553255  1
  Cl  Cl5  1  0.766977  0.661141  0.553255  1
  Cl  Cl6  1  0.233023  0.338859  0.446745  1
  Cl  Cl7  1  0.900013  -0.000000  0.422979  1
  Cl  Cl8  1  0.099987  -0.000000  0.577021  1
