# generated using pymatgen
data_LiAuI4
_symmetry_space_group_name_H-M   'P 1'
_cell_length_a   4.34055551
_cell_length_b   7.07567917
_cell_length_c   23.69129200
_cell_angle_alpha   90.00000000
_cell_angle_beta   90.00000000
_cell_angle_gamma   86.68956523
_symmetry_Int_Tables_number   1
_chemical_formula_structural   LiAuI4
_chemical_formula_sum   'Li1 Au1 I4'
_cell_volume   726.40175926
_cell_formula_units_Z   1
loop_
 _symmetry_equiv_pos_site_id
 _symmetry_equiv_pos_as_xyz
  1  'x, y, z'
loop_
 _atom_site_type_symbol
 _atom_site_label
 _atom_site_symmetry_multiplicity
 _atom_site_fract_x
 _atom_site_fract_y
 _atom_site_fract_z
 _atom_site_occupancy
  Li  Li1  1  0.500000  0.500000  0.500000  1
  Au  Au2  1  0.000000  0.000000  0.500000  1
  I  I3  1  0.990988  0.311327  0.565255  1
  I  I4  1  0.009012  0.688673  0.434745  1
  I  I5  1  0.345150  0.814998  0.578369  1
  I  I6  1  0.654850  0.185002  0.421631  1
