# generated using pymatgen
data_TeHO3
_symmetry_space_group_name_H-M   'P 1'
_cell_length_a   4.72751305
_cell_length_b   8.00772089
_cell_length_c   25.76483000
_cell_angle_alpha   90.00000000
_cell_angle_beta   90.00000000
_cell_angle_gamma   89.88806527
_symmetry_Int_Tables_number   1
_chemical_formula_structural   TeHO3
_chemical_formula_sum   'Te4 H4 O12'
_cell_volume   975.36713001
_cell_formula_units_Z   4
loop_
 _symmetry_equiv_pos_site_id
 _symmetry_equiv_pos_as_xyz
  1  'x, y, z'
loop_
 _atom_site_type_symbol
 _atom_site_label
 _atom_site_symmetry_multiplicity
 _atom_site_fract_x
 _atom_site_fract_y
 _atom_site_fract_z
 _atom_site_occupancy
  Te  Te1  1  0.946204  0.475260  0.454390  1
  Te  Te2  1  0.419721  0.536399  0.569759  1
  Te  Te3  1  0.417496  0.828981  0.478917  1
  Te  Te4  1  0.841703  0.166644  0.538735  1
  H  H5  1  0.279266  0.250889  0.432135  1
  H  H6  1  0.881149  0.595263  0.612176  1
  H  H7  1  0.982017  0.953591  0.438330  1
  H  H8  1  0.524832  0.453026  0.398906  1
  O  O9  1  0.741491  0.264700  0.471405  1
  O  O10  1  0.240238  0.743788  0.540732  1
  O  O11  1  0.169059  0.406479  0.515910  1
  O  O12  1  0.665126  0.590660  0.501374  1
  O  O13  1  0.215187  0.347155  0.411314  1
  O  O14  1  0.692644  0.662107  0.606705  1
  O  O15  1  0.613861  0.319855  0.578791  1
  O  O16  1  0.137491  0.678317  0.437974  1
  O  O17  1  0.100536  0.996811  0.466708  1
  O  O18  1  0.534305  0.015500  0.530965  1
  O  O19  1  0.708538  0.515657  0.395693  1
  O  O20  1  0.151091  0.500038  0.619082  1
