# generated using pymatgen
data_V3O2F5
_symmetry_space_group_name_H-M   'P 1'
_cell_length_a   4.87415375
_cell_length_b   5.09182733
_cell_length_c   27.61281964
_cell_angle_alpha   90.00000000
_cell_angle_beta   90.00000000
_cell_angle_gamma   90.00000000
_symmetry_Int_Tables_number   1
_chemical_formula_structural   V3O2F5
_chemical_formula_sum   'V6 O4 F10'
_cell_volume   685.30460229
_cell_formula_units_Z   2
loop_
 _symmetry_equiv_pos_site_id
 _symmetry_equiv_pos_as_xyz
  1  'x, y, z'
loop_
 _atom_site_type_symbol
 _atom_site_label
 _atom_site_symmetry_multiplicity
 _atom_site_fract_x
 _atom_site_fract_y
 _atom_site_fract_z
 _atom_site_occupancy
  V  V1  1  0.304109  0.935484  0.500000  1
  V  V2  1  0.691617  0.882544  0.406981  1
  V  V3  1  0.691617  0.882544  0.593019  1
  V  V4  1  0.695891  0.435484  0.500000  1
  V  V5  1  0.308384  0.382544  0.593019  1
  V  V6  1  0.308384  0.382544  0.406981  1
  O  O7  1  0.463377  0.658152  0.546321  1
  O  O8  1  0.463377  0.658152  0.453679  1
  O  O9  1  0.536624  0.158152  0.453679  1
  O  O10  1  0.536624  0.158152  0.546321  1
  F  F11  1  0.931666  0.772053  0.500000  1
  F  F12  1  0.457158  0.660616  0.363797  1
  F  F13  1  0.457158  0.660616  0.636203  1
  F  F14  1  0.943057  0.562245  0.409942  1
  F  F15  1  0.943057  0.562245  0.590058  1
  F  F16  1  0.068334  0.272053  0.500000  1
  F  F17  1  0.542842  0.160616  0.636203  1
  F  F18  1  0.542842  0.160616  0.363797  1
  F  F19  1  0.056943  0.062245  0.590058  1
  F  F20  1  0.056943  0.062245  0.409942  1
