# generated using pymatgen
data_Bi6B10O21
_symmetry_space_group_name_H-M   'P 1'
_cell_length_a   7.14762451
_cell_length_b   15.18661727
_cell_length_c   25.15040500
_cell_angle_alpha   90.00000000
_cell_angle_beta   90.00000000
_cell_angle_gamma   93.97959028
_symmetry_Int_Tables_number   1
_chemical_formula_structural   Bi6B10O21
_chemical_formula_sum   'Bi6 B10 O21'
_cell_volume   2723.44958500
_cell_formula_units_Z   1
loop_
 _symmetry_equiv_pos_site_id
 _symmetry_equiv_pos_as_xyz
  1  'x, y, z'
loop_
 _atom_site_type_symbol
 _atom_site_label
 _atom_site_symmetry_multiplicity
 _atom_site_fract_x
 _atom_site_fract_y
 _atom_site_fract_z
 _atom_site_occupancy
  Bi  Bi1  1  0.622459  0.737416  0.407669  1
  Bi  Bi2  1  0.207003  0.028483  0.523418  1
  Bi  Bi3  1  0.703886  0.962339  0.597294  1
  Bi  Bi4  1  0.296115  0.037661  0.402706  1
  Bi  Bi5  1  0.792997  0.971517  0.476582  1
  Bi  Bi6  1  0.377541  0.262584  0.592331  1
  B  B7  1  0.321308  0.860934  0.449528  1
  B  B8  1  0.005797  0.793019  0.463152  1
  B  B9  1  0.384477  0.836688  0.550290  1
  B  B10  1  0.271704  0.708642  0.495497  1
  B  B11  1  0.473693  0.579691  0.478360  1
  B  B12  1  0.526307  0.420309  0.521640  1
  B  B13  1  0.728296  0.291358  0.504503  1
  B  B14  1  0.615523  0.163312  0.449710  1
  B  B15  1  0.994203  0.206981  0.536848  1
  B  B16  1  0.678692  0.139066  0.550472  1
  O  O17  1  0.812480  0.805045  0.462925  1
  O  O18  1  0.500000  0.500000  0.500000  1
  O  O19  1  0.568620  0.084296  0.586472  1
  O  O20  1  0.118040  0.859975  0.439135  1
  O  O21  1  0.349094  0.893436  0.506786  1
  O  O22  1  0.376836  0.768860  0.448559  1
  O  O23  1  0.612314  0.614786  0.443547  1
  O  O24  1  0.456362  0.874808  0.595848  1
  O  O25  1  0.074773  0.722851  0.486734  1
  O  O26  1  0.684857  0.379179  0.510996  1
  O  O27  1  0.345975  0.749010  0.544260  1
  O  O28  1  0.654025  0.250990  0.455740  1
  O  O29  1  0.315143  0.620821  0.489004  1
  O  O30  1  0.925227  0.277149  0.513266  1
  O  O31  1  0.543638  0.125192  0.404152  1
  O  O32  1  0.387686  0.385214  0.556453  1
  O  O33  1  0.623164  0.231140  0.551441  1
  O  O34  1  0.650906  0.106564  0.493214  1
  O  O35  1  0.881960  0.140025  0.560865  1
  O  O36  1  0.431380  0.915704  0.413528  1
  O  O37  1  0.187520  0.194955  0.537075  1
