# generated using pymatgen
data_GeAsSe
_symmetry_space_group_name_H-M   'P 1'
_cell_length_a   5.11377838
_cell_length_b   10.37813187
_cell_length_c   23.38965100
_cell_angle_alpha   90.00000000
_cell_angle_beta   90.00000000
_cell_angle_gamma   90.00000000
_symmetry_Int_Tables_number   1
_chemical_formula_structural   GeAsSe
_chemical_formula_sum   'Ge4 As4 Se4'
_cell_volume   1241.32307672
_cell_formula_units_Z   4
loop_
 _symmetry_equiv_pos_site_id
 _symmetry_equiv_pos_as_xyz
  1  'x, y, z'
loop_
 _atom_site_type_symbol
 _atom_site_label
 _atom_site_symmetry_multiplicity
 _atom_site_fract_x
 _atom_site_fract_y
 _atom_site_fract_z
 _atom_site_occupancy
  Ge  Ge1  1  0.500000  0.750000  0.509051  1
  Ge  Ge2  1  0.500000  0.250000  0.490949  1
  Ge  Ge3  1  0.953415  0.500000  0.500000  1
  Ge  Ge4  1  0.046585  0.000000  0.500000  1
  As  As5  1  0.172307  0.335605  0.561252  1
  As  As6  1  0.172307  0.664395  0.438748  1
  As  As7  1  0.827693  0.835605  0.438748  1
  As  As8  1  0.827693  0.164395  0.561252  1
  Se  Se9  1  0.324422  0.908171  0.572730  1
  Se  Se10  1  0.324422  0.091829  0.427270  1
  Se  Se11  1  0.675578  0.408171  0.427270  1
  Se  Se12  1  0.675578  0.591829  0.572730  1
