# generated using pymatgen
data_YCo
_symmetry_space_group_name_H-M   'P 1'
_cell_length_a   3.93672768
_cell_length_b   3.93678405
_cell_length_c   23.16881265
_cell_angle_alpha   89.99250634
_cell_angle_beta   90.00000000
_cell_angle_gamma   60.00046505
_symmetry_Int_Tables_number   1
_chemical_formula_structural   YCo
_chemical_formula_sum   'Y2 Co2'
_cell_volume   310.96635669
_cell_formula_units_Z   2
loop_
 _symmetry_equiv_pos_site_id
 _symmetry_equiv_pos_as_xyz
  1  'x, y, z'
loop_
 _atom_site_type_symbol
 _atom_site_label
 _atom_site_symmetry_multiplicity
 _atom_site_fract_x
 _atom_site_fract_y
 _atom_site_fract_z
 _atom_site_occupancy
  Y  Y1  1  0.999949  0.000103  0.424688  1
  Y  Y2  1  0.000051  0.999897  0.575312  1
  Co  Co3  1  0.666661  0.666678  0.499582  1
  Co  Co4  1  0.333339  0.333322  0.500418  1
