# generated using pymatgen
data_BiS
_symmetry_space_group_name_H-M   'P 1'
_cell_length_a   5.63090851
_cell_length_b   15.17380679
_cell_length_c   23.13434600
_cell_angle_alpha   90.00000000
_cell_angle_beta   90.00000000
_cell_angle_gamma   90.00000000
_symmetry_Int_Tables_number   1
_chemical_formula_structural   BiS
_chemical_formula_sum   'Bi10 S10'
_cell_volume   1976.65214263
_cell_formula_units_Z   10
loop_
 _symmetry_equiv_pos_site_id
 _symmetry_equiv_pos_as_xyz
  1  'x, y, z'
loop_
 _atom_site_type_symbol
 _atom_site_label
 _atom_site_symmetry_multiplicity
 _atom_site_fract_x
 _atom_site_fract_y
 _atom_site_fract_z
 _atom_site_occupancy
  Bi  Bi1  1  0.475825  0.100486  0.429632  1
  Bi  Bi2  1  0.975825  0.899514  0.570368  1
  Bi  Bi3  1  0.475825  0.899514  0.429632  1
  Bi  Bi4  1  0.975825  0.100486  0.570368  1
  Bi  Bi5  1  0.481026  0.299216  0.566980  1
  Bi  Bi6  1  0.981026  0.700784  0.433020  1
  Bi  Bi7  1  0.481026  0.700784  0.566980  1
  Bi  Bi8  1  0.981026  0.299216  0.433020  1
  Bi  Bi9  1  0.484004  0.500000  0.432616  1
  Bi  Bi10  1  0.984004  0.500000  0.567384  1
  S  S11  1  0.475439  0.121651  0.552066  1
  S  S12  1  0.975439  0.878349  0.447934  1
  S  S13  1  0.475439  0.878349  0.552066  1
  S  S14  1  0.975439  0.121651  0.447934  1
  S  S15  1  0.484994  0.314563  0.445587  1
  S  S16  1  0.984994  0.685437  0.554413  1
  S  S17  1  0.484994  0.685437  0.445587  1
  S  S18  1  0.984994  0.314563  0.554413  1
  S  S19  1  0.482428  0.500000  0.555461  1
  S  S20  1  0.982428  0.500000  0.444539  1
