# generated using pymatgen
data_ZnWO4
_symmetry_space_group_name_H-M   'P 1'
_cell_length_a   4.86990699
_cell_length_b   4.85018214
_cell_length_c   24.45724400
_cell_angle_alpha   90.00000000
_cell_angle_beta   90.00000000
_cell_angle_gamma   96.08740377
_symmetry_Int_Tables_number   1
_chemical_formula_structural   ZnWO4
_chemical_formula_sum   'Zn2 W2 O8'
_cell_volume   574.42116985
_cell_formula_units_Z   2
loop_
 _symmetry_equiv_pos_site_id
 _symmetry_equiv_pos_as_xyz
  1  'x, y, z'
loop_
 _atom_site_type_symbol
 _atom_site_label
 _atom_site_symmetry_multiplicity
 _atom_site_fract_x
 _atom_site_fract_y
 _atom_site_fract_z
 _atom_site_occupancy
  Zn  Zn1  1  0.749939  0.499970  0.563120  1
  Zn  Zn2  1  0.250061  0.500030  0.436880  1
  W  W3  1  0.249972  0.999968  0.545491  1
  W  W4  1  0.750028  0.000032  0.454509  1
  O  O5  1  0.945063  0.242077  0.408676  1
  O  O6  1  0.543329  0.779179  0.523610  1
  O  O7  1  0.444959  0.242030  0.591329  1
  O  O8  1  0.043358  0.779197  0.476386  1
  O  O9  1  0.054937  0.757923  0.591324  1
  O  O10  1  0.555041  0.757970  0.408671  1
  O  O11  1  0.456671  0.220821  0.476390  1
  O  O12  1  0.956642  0.220803  0.523614  1
