# generated using pymatgen
data_TiCl3
_symmetry_space_group_name_H-M   'P 1'
_cell_length_a   6.00759138
_cell_length_b   5.98553435
_cell_length_c   22.87886100
_cell_angle_alpha   90.00000000
_cell_angle_beta   90.00000000
_cell_angle_gamma   120.12197052
_symmetry_Int_Tables_number   1
_chemical_formula_structural   TiCl3
_chemical_formula_sum   'Ti2 Cl6'
_cell_volume   711.59560795
_cell_formula_units_Z   2
loop_
 _symmetry_equiv_pos_site_id
 _symmetry_equiv_pos_as_xyz
  1  'x, y, z'
loop_
 _atom_site_type_symbol
 _atom_site_label
 _atom_site_symmetry_multiplicity
 _atom_site_fract_x
 _atom_site_fract_y
 _atom_site_fract_z
 _atom_site_occupancy
  Ti  Ti1  1  0.895545  0.791090  0.500000  1
  Ti  Ti2  1  0.215530  0.431060  0.500000  1
  Cl  Cl3  1  0.213876  0.111009  0.563371  1
  Cl  Cl4  1  0.897134  0.111009  0.436629  1
  Cl  Cl5  1  0.555310  0.456398  0.439219  1
  Cl  Cl6  1  0.209898  0.765904  0.439240  1
  Cl  Cl7  1  0.901088  0.456398  0.560781  1
  Cl  Cl8  1  0.556005  0.765904  0.560760  1
