# generated using pymatgen
data_Hg3SeO6
_symmetry_space_group_name_H-M   'P 1'
_cell_length_a   7.15244979
_cell_length_b   7.14358369
_cell_length_c   22.21245400
_cell_angle_alpha   90.00000000
_cell_angle_beta   90.00000000
_cell_angle_gamma   120.36475226
_symmetry_Int_Tables_number   1
_chemical_formula_structural   Hg3SeO6
_chemical_formula_sum   'Hg3 Se1 O6'
_cell_volume   979.24220202
_cell_formula_units_Z   1
loop_
 _symmetry_equiv_pos_site_id
 _symmetry_equiv_pos_as_xyz
  1  'x, y, z'
loop_
 _atom_site_type_symbol
 _atom_site_label
 _atom_site_symmetry_multiplicity
 _atom_site_fract_x
 _atom_site_fract_y
 _atom_site_fract_z
 _atom_site_occupancy
  Hg  Hg1  1  0.997989  0.694161  0.502456  1
  Hg  Hg2  1  0.491999  0.684617  0.495594  1
  Hg  Hg3  1  0.502846  0.190186  0.504529  1
  Se  Se4  1  0.982792  0.215807  0.499646  1
  O  O5  1  0.329923  0.855458  0.520482  1
  O  O6  1  0.141616  0.422957  0.453257  1
  O  O7  1  0.121705  0.114230  0.533519  1
  O  O8  1  0.667087  0.522135  0.481598  1
  O  O9  1  0.879118  0.308728  0.552031  1
  O  O10  1  0.782100  0.027665  0.456891  1
