# generated using pymatgen
data_NpI3
_symmetry_space_group_name_H-M   'P 1'
_cell_length_a   4.25314408
_cell_length_b   9.92635089
_cell_length_c   24.86562500
_cell_angle_alpha   90.00000000
_cell_angle_beta   90.00000000
_cell_angle_gamma   90.00000000
_symmetry_Int_Tables_number   1
_chemical_formula_structural   NpI3
_chemical_formula_sum   'Np2 I6'
_cell_volume   1049.78194240
_cell_formula_units_Z   2
loop_
 _symmetry_equiv_pos_site_id
 _symmetry_equiv_pos_as_xyz
  1  'x, y, z'
loop_
 _atom_site_type_symbol
 _atom_site_label
 _atom_site_symmetry_multiplicity
 _atom_site_fract_x
 _atom_site_fract_y
 _atom_site_fract_z
 _atom_site_occupancy
  Np  Np1  1  0.000000  0.500000  0.492413  1
  Np  Np2  1  0.500000  -0.000000  0.507587  1
  I  I3  1  0.500000  0.500000  0.400773  1
  I  I4  1  -0.000000  -0.000000  0.599227  1
  I  I5  1  -0.000000  0.817548  0.441576  1
  I  I6  1  0.500000  0.682452  0.558424  1
  I  I7  1  0.500000  0.317548  0.558424  1
  I  I8  1  -0.000000  0.182452  0.441576  1
