# generated using pymatgen
data_ZrIN
_symmetry_space_group_name_H-M   'P 1'
_cell_length_a   3.75345442
_cell_length_b   3.75345502
_cell_length_c   27.01513455
_cell_angle_alpha   90.00000000
_cell_angle_beta   90.00000000
_cell_angle_gamma   60.00000527
_symmetry_Int_Tables_number   1
_chemical_formula_structural   ZrIN
_chemical_formula_sum   'Zr2 I2 N2'
_cell_volume   329.60982724
_cell_formula_units_Z   2
loop_
 _symmetry_equiv_pos_site_id
 _symmetry_equiv_pos_as_xyz
  1  'x, y, z'
loop_
 _atom_site_type_symbol
 _atom_site_label
 _atom_site_symmetry_multiplicity
 _atom_site_fract_x
 _atom_site_fract_y
 _atom_site_fract_z
 _atom_site_occupancy
  Zr  Zr1  1  0.000000  0.000000  0.547776  1
  Zr  Zr2  1  0.333333  0.333333  0.452224  1
  I  I3  1  0.666667  0.666667  0.629607  1
  I  I4  1  0.666667  0.666667  0.370393  1
  N  N5  1  0.333333  0.333333  0.532734  1
  N  N6  1  0.000000  0.000000  0.467266  1
