# generated using pymatgen
data_MnSbSe2Br
_symmetry_space_group_name_H-M   'P 1'
_cell_length_a   3.82769429
_cell_length_b   10.41340425
_cell_length_c   25.51990200
_cell_angle_alpha   90.00000000
_cell_angle_beta   90.00000000
_cell_angle_gamma   90.00000000
_symmetry_Int_Tables_number   1
_chemical_formula_structural   MnSbSe2Br
_chemical_formula_sum   'Mn2 Sb2 Se4 Br2'
_cell_volume   1017.20614402
_cell_formula_units_Z   2
loop_
 _symmetry_equiv_pos_site_id
 _symmetry_equiv_pos_as_xyz
  1  'x, y, z'
loop_
 _atom_site_type_symbol
 _atom_site_label
 _atom_site_symmetry_multiplicity
 _atom_site_fract_x
 _atom_site_fract_y
 _atom_site_fract_z
 _atom_site_occupancy
  Mn  Mn1  1  0.500000  0.491065  0.505514  1
  Mn  Mn2  1  0.500000  0.991065  0.494486  1
  Sb  Sb3  1  -0.000000  0.824546  0.600979  1
  Sb  Sb4  1  -0.000000  0.324546  0.399021  1
  Se  Se5  1  0.000000  0.553086  0.433223  1
  Se  Se6  1  0.500000  0.244349  0.465035  1
  Se  Se7  1  0.500000  0.744349  0.534965  1
  Se  Se8  1  -0.000000  0.053086  0.566777  1
  Br  Br9  1  -0.000000  0.430923  0.570841  1
  Br  Br10  1  0.000000  0.930923  0.429159  1
