# generated using pymatgen
data_Mg2Sn
_symmetry_space_group_name_H-M   'P 1'
_cell_length_a   3.25674027
_cell_length_b   3.25674034
_cell_length_c   33.03825800
_cell_angle_alpha   90.00000000
_cell_angle_beta   90.00000000
_cell_angle_gamma   119.99999920
_symmetry_Int_Tables_number   1
_chemical_formula_structural   Mg2Sn
_chemical_formula_sum   'Mg4 Sn2'
_cell_volume   303.46879020
_cell_formula_units_Z   2
loop_
 _symmetry_equiv_pos_site_id
 _symmetry_equiv_pos_as_xyz
  1  'x, y, z'
loop_
 _atom_site_type_symbol
 _atom_site_label
 _atom_site_symmetry_multiplicity
 _atom_site_fract_x
 _atom_site_fract_y
 _atom_site_fract_z
 _atom_site_occupancy
  Mg  Mg1  1  0.333333  0.666667  0.539854  1
  Mg  Mg2  1  0.666667  0.333333  0.618800  1
  Mg  Mg3  1  0.333333  0.666667  0.381200  1
  Mg  Mg4  1  0.666667  0.333333  0.460146  1
  Sn  Sn5  1  0.333333  0.666667  0.697090  1
  Sn  Sn6  1  0.666667  0.333333  0.302910  1
