# generated using pymatgen
data_Te3(PdBr)4
_symmetry_space_group_name_H-M   'P 1'
_cell_length_a   8.51908850
_cell_length_b   10.12486842
_cell_length_c   27.21237400
_cell_angle_alpha   90.00000000
_cell_angle_beta   90.00000000
_cell_angle_gamma   82.95882068
_symmetry_Int_Tables_number   1
_chemical_formula_structural   Te3(PdBr)4
_chemical_formula_sum   'Te6 Pd8 Br8'
_cell_volume   2329.49198075
_cell_formula_units_Z   2
loop_
 _symmetry_equiv_pos_site_id
 _symmetry_equiv_pos_as_xyz
  1  'x, y, z'
loop_
 _atom_site_type_symbol
 _atom_site_label
 _atom_site_symmetry_multiplicity
 _atom_site_fract_x
 _atom_site_fract_y
 _atom_site_fract_z
 _atom_site_occupancy
  Te  Te1  1  0.301149  0.646417  0.450001  1
  Te  Te2  1  0.378305  0.692004  0.571684  1
  Te  Te3  1  0.949173  0.372606  0.428316  1
  Te  Te4  1  0.541333  0.871076  0.484734  1
  Te  Te5  1  0.786145  0.193534  0.515266  1
  Te  Te6  1  0.026329  0.418193  0.549999  1
  Pd  Pd7  1  0.389878  0.480364  0.519242  1
  Pd  Pd8  1  0.587166  0.673261  0.426192  1
  Pd  Pd9  1  0.740312  0.391349  0.573808  1
  Pd  Pd10  1  0.937600  0.584246  0.480758  1
  Pd  Pd11  1  0.088257  0.206409  0.493833  1
  Pd  Pd12  1  0.665967  0.726150  0.555254  1
  Pd  Pd13  1  0.239221  0.858201  0.506167  1
  Pd  Pd14  1  0.661511  0.338460  0.444746  1
  Br  Br15  1  0.584122  0.475180  0.367657  1
  Br  Br16  1  0.743356  0.589429  0.632343  1
  Br  Br17  1  0.462519  0.339118  0.596246  1
  Br  Br18  1  0.374867  0.279600  0.459836  1
  Br  Br19  1  0.209395  0.059282  0.566614  1
  Br  Br20  1  0.118083  0.005328  0.433386  1
  Br  Br21  1  0.864959  0.725491  0.403754  1
  Br  Br22  1  0.952611  0.785010  0.540164  1
