# generated using pymatgen
data_CaGaN
_symmetry_space_group_name_H-M   'P 1'
_cell_length_a   3.55412650
_cell_length_b   3.55412650
_cell_length_c   26.31626980
_cell_angle_alpha   90.00000000
_cell_angle_beta   90.00000000
_cell_angle_gamma   90.00000000
_symmetry_Int_Tables_number   1
_chemical_formula_structural   CaGaN
_chemical_formula_sum   'Ca2 Ga2 N2'
_cell_volume   332.42225629
_cell_formula_units_Z   2
loop_
 _symmetry_equiv_pos_site_id
 _symmetry_equiv_pos_as_xyz
  1  'x, y, z'
loop_
 _atom_site_type_symbol
 _atom_site_label
 _atom_site_symmetry_multiplicity
 _atom_site_fract_x
 _atom_site_fract_y
 _atom_site_fract_z
 _atom_site_occupancy
  Ca  Ca1  1  0.000000  0.500000  0.457280  1
  Ca  Ca2  1  0.500000  0.000000  0.542720  1
  Ga  Ga3  1  0.500000  0.000000  0.377309  1
  Ga  Ga4  1  0.000000  0.500000  0.622691  1
  N  N5  1  0.500000  0.000000  0.449370  1
  N  N6  1  0.000000  0.500000  0.550630  1
