# generated using pymatgen
data_Ag2PdCl4
_symmetry_space_group_name_H-M   'P 1'
_cell_length_a   9.09952949
_cell_length_b   8.11595422
_cell_length_c   24.65304800
_cell_angle_alpha   90.00000000
_cell_angle_beta   90.00000000
_cell_angle_gamma   90.00000000
_symmetry_Int_Tables_number   1
_chemical_formula_structural   Ag2PdCl4
_chemical_formula_sum   'Ag4 Pd2 Cl8'
_cell_volume   1820.66124040
_cell_formula_units_Z   2
loop_
 _symmetry_equiv_pos_site_id
 _symmetry_equiv_pos_as_xyz
  1  'x, y, z'
loop_
 _atom_site_type_symbol
 _atom_site_label
 _atom_site_symmetry_multiplicity
 _atom_site_fract_x
 _atom_site_fract_y
 _atom_site_fract_z
 _atom_site_occupancy
  Ag  Ag1  1  0.250000  0.750000  0.554414  1
  Ag  Ag2  1  0.750000  0.750000  0.445586  1
  Ag  Ag3  1  0.250000  0.250000  0.554414  1
  Ag  Ag4  1  0.750000  0.250000  0.445586  1
  Pd  Pd5  1  -0.000000  0.000000  0.500000  1
  Pd  Pd6  1  0.500000  0.500000  0.500000  1
  Cl  Cl7  1  0.099668  0.000000  0.588232  1
  Cl  Cl8  1  0.599668  0.500000  0.411768  1
  Cl  Cl9  1  0.400332  0.500000  0.588232  1
  Cl  Cl10  1  0.900332  -0.000000  0.411768  1
  Cl  Cl11  1  0.500000  0.789274  0.500000  1
  Cl  Cl12  1  -0.000000  0.710726  0.500000  1
  Cl  Cl13  1  -0.000000  0.289274  0.500000  1
  Cl  Cl14  1  0.500000  0.210726  0.500000  1
