# generated using pymatgen
data_ScCl3
_symmetry_space_group_name_H-M   'P 1'
_cell_length_a   6.36879108
_cell_length_b   6.36879165
_cell_length_c   22.75669399
_cell_angle_alpha   90.00000000
_cell_angle_beta   90.00000000
_cell_angle_gamma   59.99999260
_symmetry_Int_Tables_number   1
_chemical_formula_structural   ScCl3
_chemical_formula_sum   'Sc2 Cl6'
_cell_volume   799.38098447
_cell_formula_units_Z   2
loop_
 _symmetry_equiv_pos_site_id
 _symmetry_equiv_pos_as_xyz
  1  'x, y, z'
loop_
 _atom_site_type_symbol
 _atom_site_label
 _atom_site_symmetry_multiplicity
 _atom_site_fract_x
 _atom_site_fract_y
 _atom_site_fract_z
 _atom_site_occupancy
  Sc  Sc1  1  0.333333  0.333333  0.499995  1
  Sc  Sc2  1  -0.000000  0.000000  0.500005  1
  Cl  Cl3  1  0.024326  0.308984  0.562512  1
  Cl  Cl4  1  0.666691  0.024326  0.562512  1
  Cl  Cl5  1  0.024350  0.666643  0.437488  1
  Cl  Cl6  1  0.666643  0.309008  0.437488  1
  Cl  Cl7  1  0.309008  0.024350  0.437488  1
  Cl  Cl8  1  0.308984  0.666691  0.562512  1
