# generated using pymatgen
data_Bi2PbSe4
_symmetry_space_group_name_H-M   'P 1'
_cell_length_a   4.22066838
_cell_length_b   4.22066742
_cell_length_c   30.76593735
_cell_angle_alpha   90.00000000
_cell_angle_beta   90.00000000
_cell_angle_gamma   60.00000014
_symmetry_Int_Tables_number   1
_chemical_formula_structural   Bi2PbSe4
_chemical_formula_sum   'Bi2 Pb1 Se4'
_cell_volume   474.63870037
_cell_formula_units_Z   1
loop_
 _symmetry_equiv_pos_site_id
 _symmetry_equiv_pos_as_xyz
  1  'x, y, z'
loop_
 _atom_site_type_symbol
 _atom_site_label
 _atom_site_symmetry_multiplicity
 _atom_site_fract_x
 _atom_site_fract_y
 _atom_site_fract_z
 _atom_site_occupancy
  Bi  Bi1  1  0.333333  0.333333  0.376224  1
  Bi  Bi2  1  0.666667  0.666667  0.623776  1
  Pb  Pb3  1  0.000000  0.000000  0.500000  1
  Se  Se4  1  0.000000  0.000000  0.326144  1
  Se  Se5  1  0.333333  0.333333  0.560673  1
  Se  Se6  1  0.666667  0.666667  0.439327  1
  Se  Se7  1  0.000000  0.000000  0.673856  1
