# generated using pymatgen
data_TeMoCl7O
_symmetry_space_group_name_H-M   'P 1'
_cell_length_a   11.64930827
_cell_length_b   12.61362474
_cell_length_c   27.54396100
_cell_angle_alpha   90.00000000
_cell_angle_beta   90.00000000
_cell_angle_gamma   90.00000000
_symmetry_Int_Tables_number   1
_chemical_formula_structural   TeMoCl7O
_chemical_formula_sum   'Te4 Mo4 Cl28 O4'
_cell_volume   4047.30971193
_cell_formula_units_Z   4
loop_
 _symmetry_equiv_pos_site_id
 _symmetry_equiv_pos_as_xyz
  1  'x, y, z'
loop_
 _atom_site_type_symbol
 _atom_site_label
 _atom_site_symmetry_multiplicity
 _atom_site_fract_x
 _atom_site_fract_y
 _atom_site_fract_z
 _atom_site_occupancy
  Te  Te1  1  0.887188  0.849320  0.425395  1
  Te  Te2  1  0.387188  0.650680  0.425395  1
  Te  Te3  1  0.112812  0.150680  0.574605  1
  Te  Te4  1  0.612812  0.349320  0.574605  1
  Mo  Mo5  1  0.857660  0.590956  0.511740  1
  Mo  Mo6  1  0.357660  0.909044  0.511740  1
  Mo  Mo7  1  0.142340  0.409044  0.488260  1
  Mo  Mo8  1  0.642340  0.090956  0.488260  1
  Cl  Cl9  1  0.006742  0.263457  0.493799  1
  Cl  Cl10  1  0.513443  0.737456  0.371025  1
  Cl  Cl11  1  0.002689  0.993271  0.569248  1
  Cl  Cl12  1  0.260175  0.075497  0.496402  1
  Cl  Cl13  1  0.235067  0.347876  0.561682  1
  Cl  Cl14  1  0.013443  0.762544  0.371025  1
  Cl  Cl15  1  0.506742  0.236543  0.493799  1
  Cl  Cl16  1  0.996267  0.497504  0.560668  1
  Cl  Cl17  1  0.993258  0.736543  0.506201  1
  Cl  Cl18  1  0.739659  0.408155  0.636332  1
  Cl  Cl19  1  0.497311  0.493271  0.430752  1
  Cl  Cl20  1  0.764933  0.652124  0.438318  1
  Cl  Cl21  1  0.997311  0.006729  0.430752  1
  Cl  Cl22  1  0.260341  0.591845  0.363668  1
  Cl  Cl23  1  0.739825  0.924503  0.503598  1
  Cl  Cl24  1  0.493258  0.763457  0.506201  1
  Cl  Cl25  1  0.264933  0.847876  0.438318  1
  Cl  Cl26  1  0.503733  0.997504  0.439332  1
  Cl  Cl27  1  0.735067  0.152124  0.561682  1
  Cl  Cl28  1  0.760175  0.424503  0.496402  1
  Cl  Cl29  1  0.986557  0.237456  0.628975  1
  Cl  Cl30  1  0.239659  0.091845  0.636332  1
  Cl  Cl31  1  0.502689  0.506729  0.569248  1
  Cl  Cl32  1  0.496267  0.002496  0.560668  1
  Cl  Cl33  1  0.486557  0.262544  0.628975  1
  Cl  Cl34  1  0.239825  0.575497  0.503598  1
  Cl  Cl35  1  0.760341  0.908155  0.363668  1
  Cl  Cl36  1  0.003733  0.502496  0.439332  1
  O  O37  1  0.729754  0.140295  0.444650  1
  O  O38  1  0.229753  0.359705  0.444650  1
  O  O39  1  0.270247  0.859705  0.555350  1
  O  O40  1  0.770246  0.640295  0.555350  1
