# generated using pymatgen
data_LiCuPO4
_symmetry_space_group_name_H-M   'P 1'
_cell_length_a   5.88073989
_cell_length_b   8.11941331
_cell_length_c   22.49984000
_cell_angle_alpha   90.00000000
_cell_angle_beta   90.00000000
_cell_angle_gamma   90.00000000
_symmetry_Int_Tables_number   1
_chemical_formula_structural   LiCuPO4
_chemical_formula_sum   'Li2 Cu2 P2 O8'
_cell_volume   1074.32590934
_cell_formula_units_Z   2
loop_
 _symmetry_equiv_pos_site_id
 _symmetry_equiv_pos_as_xyz
  1  'x, y, z'
loop_
 _atom_site_type_symbol
 _atom_site_label
 _atom_site_symmetry_multiplicity
 _atom_site_fract_x
 _atom_site_fract_y
 _atom_site_fract_z
 _atom_site_occupancy
  Li  Li1  1  0.250000  0.352084  0.500000  1
  Li  Li2  1  0.750000  0.647916  0.500000  1
  Cu  Cu3  1  0.000000  0.000000  0.500000  1
  Cu  Cu4  1  0.500000  0.000000  0.500000  1
  P  P5  1  0.750000  0.335069  0.500000  1
  P  P6  1  0.250000  0.664931  0.500000  1
  O  O7  1  0.968249  0.220788  0.500000  1
  O  O8  1  0.531751  0.220788  0.500000  1
  O  O9  1  0.750000  0.445209  0.445365  1
  O  O10  1  0.250000  0.554791  0.445365  1
  O  O11  1  0.750000  0.445209  0.554635  1
  O  O12  1  0.250000  0.554791  0.554635  1
  O  O13  1  0.031751  0.779212  0.500000  1
  O  O14  1  0.468249  0.779212  0.500000  1
