# generated using pymatgen
data_W(ClO)2
_symmetry_space_group_name_H-M   'P 1'
_cell_length_a   3.86134586
_cell_length_b   7.70214422
_cell_length_c   24.64279100
_cell_angle_alpha   90.00000000
_cell_angle_beta   90.00000000
_cell_angle_gamma   90.00000000
_symmetry_Int_Tables_number   1
_chemical_formula_structural   W(ClO)2
_chemical_formula_sum   'W2 Cl4 O4'
_cell_volume   732.89244219
_cell_formula_units_Z   2
loop_
 _symmetry_equiv_pos_site_id
 _symmetry_equiv_pos_as_xyz
  1  'x, y, z'
loop_
 _atom_site_type_symbol
 _atom_site_label
 _atom_site_symmetry_multiplicity
 _atom_site_fract_x
 _atom_site_fract_y
 _atom_site_fract_z
 _atom_site_occupancy
  W  W1  1  0.026997  0.524143  0.500000  1
  W  W2  1  0.973003  0.024143  0.500000  1
  Cl  Cl3  1  0.990393  0.540882  0.594344  1
  Cl  Cl4  1  0.990392  0.540882  0.405656  1
  Cl  Cl5  1  0.009608  0.040882  0.594344  1
  Cl  Cl6  1  0.009608  0.040882  0.405656  1
  O  O7  1  0.506200  0.533368  0.500000  1
  O  O8  1  0.493801  0.033368  0.500000  1
  O  O9  1  0.001688  0.282727  0.500000  1
  O  O10  1  0.998312  0.782727  0.500000  1
