# generated using pymatgen
data_Ta2Zn2CoO8
_symmetry_space_group_name_H-M   'P 1'
_cell_length_a   5.29479152
_cell_length_b   6.00969000
_cell_length_c   28.43772500
_cell_angle_alpha   90.00000000
_cell_angle_beta   90.00000000
_cell_angle_gamma   90.00140426
_symmetry_Int_Tables_number   1
_chemical_formula_structural   Ta2Zn2CoO8
_chemical_formula_sum   'Ta4 Zn4 Co2 O16'
_cell_volume   904.88999215
_cell_formula_units_Z   2
loop_
 _symmetry_equiv_pos_site_id
 _symmetry_equiv_pos_as_xyz
  1  'x, y, z'
loop_
 _atom_site_type_symbol
 _atom_site_label
 _atom_site_symmetry_multiplicity
 _atom_site_fract_x
 _atom_site_fract_y
 _atom_site_fract_z
 _atom_site_occupancy
  Ta  Ta1  1  0.253782  0.342455  0.577038  1
  Ta  Ta2  1  0.227797  0.342277  0.422981  1
  Ta  Ta3  1  0.727830  0.653161  0.422984  1
  Ta  Ta4  1  0.753805  0.653206  0.577040  1
  Zn  Zn5  1  0.217291  0.844855  0.370366  1
  Zn  Zn6  1  0.264232  0.844996  0.629629  1
  Zn  Zn7  1  0.764210  0.150688  0.629642  1
  Zn  Zn8  1  0.717270  0.150554  0.370382  1
  Co  Co9  1  0.240859  0.858150  0.500003  1
  Co  Co10  1  0.740877  0.137386  0.500009  1
  O  O11  1  0.916582  0.380159  0.545699  1
  O  O12  1  0.565070  0.380079  0.454292  1
  O  O13  1  0.065062  0.615373  0.454294  1
  O  O14  1  0.416618  0.615459  0.545687  1
  O  O15  1  0.403297  0.124739  0.539088  1
  O  O16  1  0.078451  0.124689  0.460905  1
  O  O17  1  0.578438  0.870805  0.460904  1
  O  O18  1  0.903297  0.870869  0.539092  1
  O  O19  1  0.558429  0.398849  0.617980  1
  O  O20  1  0.923165  0.398677  0.382025  1
  O  O21  1  0.623181  0.857543  0.627269  1
  O  O22  1  0.858421  0.857465  0.372727  1
  O  O23  1  0.358388  0.138004  0.372719  1
  O  O24  1  0.123141  0.138113  0.627262  1
  O  O25  1  0.058512  0.596825  0.617967  1
  O  O26  1  0.423197  0.596758  0.382016  1
