# generated using pymatgen
data_Sc2NCl2
_symmetry_space_group_name_H-M   'P 1'
_cell_length_a   3.35400606
_cell_length_b   3.35400615
_cell_length_c   25.75281400
_cell_angle_alpha   90.00000000
_cell_angle_beta   90.00000000
_cell_angle_gamma   119.99999908
_symmetry_Int_Tables_number   1
_chemical_formula_structural   Sc2NCl2
_chemical_formula_sum   'Sc2 N1 Cl2'
_cell_volume   250.88981129
_cell_formula_units_Z   1
loop_
 _symmetry_equiv_pos_site_id
 _symmetry_equiv_pos_as_xyz
  1  'x, y, z'
loop_
 _atom_site_type_symbol
 _atom_site_label
 _atom_site_symmetry_multiplicity
 _atom_site_fract_x
 _atom_site_fract_y
 _atom_site_fract_z
 _atom_site_occupancy
  Sc  Sc1  1  0.666667  0.333333  0.453813  1
  Sc  Sc2  1  0.333333  0.666667  0.546187  1
  N  N3  1  0.000000  0.000000  0.500000  1
  Cl  Cl4  1  0.666667  0.333333  0.611570  1
  Cl  Cl5  1  0.333333  0.666667  0.388430  1
