# generated using pymatgen
data_NaMgSb
_symmetry_space_group_name_H-M   'P 1'
_cell_length_a   4.85546561
_cell_length_b   4.85546561
_cell_length_c   26.89638169
_cell_angle_alpha   90.00000000
_cell_angle_beta   90.00000000
_cell_angle_gamma   90.00000000
_symmetry_Int_Tables_number   1
_chemical_formula_structural   NaMgSb
_chemical_formula_sum   'Na2 Mg2 Sb2'
_cell_volume   634.09689156
_cell_formula_units_Z   2
loop_
 _symmetry_equiv_pos_site_id
 _symmetry_equiv_pos_as_xyz
  1  'x, y, z'
loop_
 _atom_site_type_symbol
 _atom_site_label
 _atom_site_symmetry_multiplicity
 _atom_site_fract_x
 _atom_site_fract_y
 _atom_site_fract_z
 _atom_site_occupancy
  Na  Na1  1  0.500000  0.000000  0.663830  1
  Na  Na2  1  0.000000  0.500000  0.336170  1
  Mg  Mg3  1  0.000000  0.000000  0.500000  1
  Mg  Mg4  1  0.500000  0.500000  0.500000  1
  Sb  Sb5  1  0.500000  0.000000  0.557362  1
  Sb  Sb6  1  0.000000  0.500000  0.442638  1
