# generated using pymatgen
data_LiV2O5
_symmetry_space_group_name_H-M   'P 1'
_cell_length_a   3.67506919
_cell_length_b   11.32712539
_cell_length_c   27.00238700
_cell_angle_alpha   90.00000000
_cell_angle_beta   90.00000000
_cell_angle_gamma   90.00000000
_symmetry_Int_Tables_number   1
_chemical_formula_structural   LiV2O5
_chemical_formula_sum   'Li2 V4 O10'
_cell_volume   1124.05454333
_cell_formula_units_Z   2
loop_
 _symmetry_equiv_pos_site_id
 _symmetry_equiv_pos_as_xyz
  1  'x, y, z'
loop_
 _atom_site_type_symbol
 _atom_site_label
 _atom_site_symmetry_multiplicity
 _atom_site_fract_x
 _atom_site_fract_y
 _atom_site_fract_z
 _atom_site_occupancy
  Li  Li1  1  -0.000000  0.500000  0.609882  1
  Li  Li2  1  0.500000  -0.000000  0.390118  1
  V  V3  1  0.000000  0.346223  0.521970  1
  V  V4  1  -0.000000  0.653777  0.521970  1
  V  V5  1  0.500000  0.846223  0.478030  1
  V  V6  1  0.500000  0.153777  0.478030  1
  O  O7  1  0.500000  0.850546  0.415899  1
  O  O8  1  0.500000  -0.000000  0.496824  1
  O  O9  1  -0.000000  0.500000  0.503176  1
  O  O10  1  0.000000  0.817933  0.497163  1
  O  O11  1  -0.000000  0.350546  0.584101  1
  O  O12  1  0.500000  0.149454  0.415899  1
  O  O13  1  0.500000  0.682067  0.502837  1
  O  O14  1  0.500000  0.317933  0.502837  1
  O  O15  1  -0.000000  0.182067  0.497163  1
  O  O16  1  -0.000000  0.649454  0.584101  1
