# generated using pymatgen
data_Sr2CoSO3
_symmetry_space_group_name_H-M   'P 1'
_cell_length_a   4.00263719
_cell_length_b   4.00190757
_cell_length_c   30.92696600
_cell_angle_alpha   90.00000000
_cell_angle_beta   90.00000000
_cell_angle_gamma   89.98619713
_symmetry_Int_Tables_number   1
_chemical_formula_structural   Sr2CoSO3
_chemical_formula_sum   'Sr4 Co2 S2 O6'
_cell_volume   495.39382032
_cell_formula_units_Z   2
loop_
 _symmetry_equiv_pos_site_id
 _symmetry_equiv_pos_as_xyz
  1  'x, y, z'
loop_
 _atom_site_type_symbol
 _atom_site_label
 _atom_site_symmetry_multiplicity
 _atom_site_fract_x
 _atom_site_fract_y
 _atom_site_fract_z
 _atom_site_occupancy
  Sr  Sr1  1  0.750360  0.750161  0.345720  1
  Sr  Sr2  1  0.251577  0.250252  0.654292  1
  Sr  Sr3  1  0.750125  0.750340  0.455644  1
  Sr  Sr4  1  0.251797  0.250342  0.544370  1
  Co  Co5  1  0.249716  0.250550  0.403195  1
  Co  Co6  1  0.752020  0.750581  0.596824  1
  S  S7  1  0.250579  0.250046  0.323359  1
  S  S8  1  0.751466  0.750071  0.676591  1
  O  O9  1  0.750981  0.250250  0.400901  1
  O  O10  1  0.250321  0.749843  0.400904  1
  O  O11  1  0.251341  0.750280  0.599099  1
  O  O12  1  0.751722  0.249896  0.599098  1
  O  O13  1  0.252454  0.248977  0.464196  1
  O  O14  1  0.750506  0.749055  0.535806  1
