# generated using pymatgen
data_EuS
_symmetry_space_group_name_H-M   'P 1'
_cell_length_a   4.08994653
_cell_length_b   4.08994662
_cell_length_c   25.90564900
_cell_angle_alpha   90.00000000
_cell_angle_beta   90.00000000
_cell_angle_gamma   90.00876539
_symmetry_Int_Tables_number   1
_chemical_formula_structural   EuS
_chemical_formula_sum   'Eu3 S3'
_cell_volume   433.34096058
_cell_formula_units_Z   3
loop_
 _symmetry_equiv_pos_site_id
 _symmetry_equiv_pos_as_xyz
  1  'x, y, z'
loop_
 _atom_site_type_symbol
 _atom_site_label
 _atom_site_symmetry_multiplicity
 _atom_site_fract_x
 _atom_site_fract_y
 _atom_site_fract_z
 _atom_site_occupancy
  Eu  Eu1  1  0.500000  0.500000  0.500000  1
  Eu  Eu2  1  -0.000000  -0.000000  0.610268  1
  Eu  Eu3  1  0.000000  -0.000000  0.389732  1
  S  S4  1  0.000000  -0.000000  0.500000  1
  S  S5  1  0.500000  0.500000  0.613751  1
  S  S6  1  0.500000  0.500000  0.386249  1
