# generated using pymatgen
data_MgCl2O
_symmetry_space_group_name_H-M   'P 1'
_cell_length_a   6.27165553
_cell_length_b   7.55177357
_cell_length_c   24.76357100
_cell_angle_alpha   90.00000000
_cell_angle_beta   90.00000000
_cell_angle_gamma   90.00000000
_symmetry_Int_Tables_number   1
_chemical_formula_structural   MgCl2O
_chemical_formula_sum   'Mg4 Cl8 O4'
_cell_volume   1172.85528254
_cell_formula_units_Z   4
loop_
 _symmetry_equiv_pos_site_id
 _symmetry_equiv_pos_as_xyz
  1  'x, y, z'
loop_
 _atom_site_type_symbol
 _atom_site_label
 _atom_site_symmetry_multiplicity
 _atom_site_fract_x
 _atom_site_fract_y
 _atom_site_fract_z
 _atom_site_occupancy
  Mg  Mg1  1  0.804789  0.124961  0.542869  1
  Mg  Mg2  1  0.695211  0.624961  0.542869  1
  Mg  Mg3  1  0.304789  0.134269  0.457131  1
  Mg  Mg4  1  0.195211  0.634269  0.457131  1
  Cl  Cl5  1  0.265757  0.120070  0.576406  1
  Cl  Cl6  1  0.234243  0.620070  0.576406  1
  Cl  Cl7  1  0.742248  0.876369  0.598067  1
  Cl  Cl8  1  0.757752  0.376369  0.598067  1
  Cl  Cl9  1  0.242248  0.382861  0.401933  1
  Cl  Cl10  1  0.257752  0.882861  0.401933  1
  Cl  Cl11  1  0.765757  0.139161  0.423594  1
  Cl  Cl12  1  0.734243  0.639161  0.423594  1
  O  O13  1  0.608332  0.137550  0.480455  1
  O  O14  1  0.891668  0.637550  0.480455  1
  O  O15  1  0.108332  0.121681  0.519545  1
  O  O16  1  0.391668  0.621681  0.519545  1
