# generated using pymatgen
data_MnCo3O8
_symmetry_space_group_name_H-M   'P 1'
_cell_length_a   5.86301466
_cell_length_b   5.86301464
_cell_length_c   21.88777500
_cell_angle_alpha   90.00000000
_cell_angle_beta   90.00000000
_cell_angle_gamma   59.99999381
_symmetry_Int_Tables_number   1
_chemical_formula_structural   MnCo3O8
_chemical_formula_sum   'Mn1 Co3 O8'
_cell_volume   651.58965267
_cell_formula_units_Z   1
loop_
 _symmetry_equiv_pos_site_id
 _symmetry_equiv_pos_as_xyz
  1  'x, y, z'
loop_
 _atom_site_type_symbol
 _atom_site_label
 _atom_site_symmetry_multiplicity
 _atom_site_fract_x
 _atom_site_fract_y
 _atom_site_fract_z
 _atom_site_occupancy
  Mn  Mn1  1  0.666667  0.666667  0.500000  1
  Co  Co2  1  0.666667  0.166667  0.500000  1
  Co  Co3  1  0.166667  0.166667  0.500000  1
  Co  Co4  1  0.166667  0.666667  0.500000  1
  O  O5  1  0.831751  0.336498  0.456344  1
  O  O6  1  0.831751  0.831751  0.456344  1
  O  O7  1  0.336498  0.831751  0.456344  1
  O  O8  1  0.333333  0.333333  0.456456  1
  O  O9  1  0.000000  -0.000000  0.543544  1
  O  O10  1  0.996836  0.501583  0.543656  1
  O  O11  1  0.501583  0.501583  0.543656  1
  O  O12  1  0.501583  0.996836  0.543656  1
