# generated using pymatgen
data_V3H5O8
_symmetry_space_group_name_H-M   'P 1'
_cell_length_a   3.12263786
_cell_length_b   9.55917924
_cell_length_c   24.13990800
_cell_angle_alpha   89.25625805
_cell_angle_beta   89.99999998
_cell_angle_gamma   99.40034199
_symmetry_Int_Tables_number   1
_chemical_formula_structural   V3H5O8
_chemical_formula_sum   'V3 H5 O8'
_cell_volume   710.83478320
_cell_formula_units_Z   1
loop_
 _symmetry_equiv_pos_site_id
 _symmetry_equiv_pos_as_xyz
  1  'x, y, z'
loop_
 _atom_site_type_symbol
 _atom_site_label
 _atom_site_symmetry_multiplicity
 _atom_site_fract_x
 _atom_site_fract_y
 _atom_site_fract_z
 _atom_site_occupancy
  V  V1  1  0.030085  0.060170  0.481369  1
  V  V2  1  0.223310  0.446621  0.475641  1
  V  V3  1  0.845594  0.691189  0.521290  1
  H  H4  1  0.462570  0.925141  0.418198  1
  H  H5  1  0.504986  0.009972  0.573908  1
  H  H6  1  0.592505  0.185011  0.562712  1
  H  H7  1  0.754035  0.508070  0.390572  1
  H  H8  1  0.299813  0.599625  0.597430  1
  O  O9  1  0.511299  0.022597  0.431711  1
  O  O10  1  0.544720  0.089439  0.547244  1
  O  O11  1  0.130136  0.260271  0.487135  1
  O  O12  1  0.939489  0.878978  0.516360  1
  O  O13  1  0.720475  0.440949  0.421503  1
  O  O14  1  0.345369  0.690740  0.577774  1
  O  O15  1  0.327528  0.655058  0.469961  1
  O  O16  1  0.742664  0.485327  0.527191  1
