# generated using pymatgen
data_Zr3(Al2C3)2
_symmetry_space_group_name_H-M   'P 1'
_cell_length_a   3.33829510
_cell_length_b   3.33829526
_cell_length_c   34.56682500
_cell_angle_alpha   90.00000000
_cell_angle_beta   90.00000000
_cell_angle_gamma   59.99999184
_symmetry_Int_Tables_number   1
_chemical_formula_structural   Zr3(Al2C3)2
_chemical_formula_sum   'Zr3 Al4 C6'
_cell_volume   333.61038187
_cell_formula_units_Z   1
loop_
 _symmetry_equiv_pos_site_id
 _symmetry_equiv_pos_as_xyz
  1  'x, y, z'
loop_
 _atom_site_type_symbol
 _atom_site_label
 _atom_site_symmetry_multiplicity
 _atom_site_fract_x
 _atom_site_fract_y
 _atom_site_fract_z
 _atom_site_occupancy
  Zr  Zr1  1  0.333333  0.333333  0.499931  1
  Zr  Zr2  1  -0.000000  0.000000  0.578648  1
  Zr  Zr3  1  0.666667  0.666667  0.421248  1
  Al  Al4  1  0.333333  0.333333  0.290835  1
  Al  Al5  1  0.666667  0.666667  0.645678  1
  Al  Al6  1  0.000000  0.000000  0.354354  1
  Al  Al7  1  0.333333  0.333333  0.709374  1
  C  C8  1  0.666667  0.666667  0.702940  1
  C  C9  1  0.333333  0.333333  0.380017  1
  C  C10  1  -0.000000  0.000000  0.297181  1
  C  C11  1  -0.000000  0.000000  0.460172  1
  C  C12  1  0.333333  0.333333  0.619932  1
  C  C13  1  0.666667  0.666667  0.539691  1
