# generated using pymatgen
data_AgCN3O2
_symmetry_space_group_name_H-M   'P 1'
_cell_length_a   5.69795270
_cell_length_b   12.38455388
_cell_length_c   26.70254900
_cell_angle_alpha   90.00000000
_cell_angle_beta   90.00000000
_cell_angle_gamma   90.00000000
_symmetry_Int_Tables_number   1
_chemical_formula_structural   AgCN3O2
_chemical_formula_sum   'Ag4 C4 N12 O8'
_cell_volume   1884.30815351
_cell_formula_units_Z   4
loop_
 _symmetry_equiv_pos_site_id
 _symmetry_equiv_pos_as_xyz
  1  'x, y, z'
loop_
 _atom_site_type_symbol
 _atom_site_label
 _atom_site_symmetry_multiplicity
 _atom_site_fract_x
 _atom_site_fract_y
 _atom_site_fract_z
 _atom_site_occupancy
  Ag  Ag1  1  0.250000  0.293423  0.500327  1
  Ag  Ag2  1  0.750000  0.206577  0.500327  1
  Ag  Ag3  1  0.750000  0.706577  0.499673  1
  Ag  Ag4  1  0.250000  0.793423  0.499673  1
  C  C5  1  0.750000  0.956395  0.464305  1
  C  C6  1  0.750000  0.456395  0.535695  1
  C  C7  1  0.250000  0.043605  0.535695  1
  C  C8  1  0.250000  0.543605  0.464305  1
  N  N9  1  0.250000  0.636691  0.472661  1
  N  N10  1  0.250000  0.136691  0.527339  1
  N  N11  1  0.750000  0.060054  0.456985  1
  N  N12  1  0.750000  0.589965  0.595451  1
  N  N13  1  0.250000  0.410035  0.404549  1
  N  N14  1  0.250000  0.910035  0.595451  1
  N  N15  1  0.750000  0.560054  0.543015  1
  N  N16  1  0.250000  0.439946  0.456985  1
  N  N17  1  0.750000  0.089965  0.404549  1
  N  N18  1  0.750000  0.363309  0.527339  1
  N  N19  1  0.750000  0.863309  0.472661  1
  N  N20  1  0.250000  0.939946  0.543015  1
  O  O21  1  0.250000  0.982242  0.626804  1
  O  O22  1  0.750000  0.017758  0.373196  1
  O  O23  1  0.750000  0.188295  0.397515  1
  O  O24  1  0.750000  0.688295  0.602485  1
  O  O25  1  0.250000  0.811705  0.602485  1
  O  O26  1  0.750000  0.517758  0.626804  1
  O  O27  1  0.250000  0.482242  0.373196  1
  O  O28  1  0.250000  0.311705  0.397515  1
