# generated using pymatgen
data_SbO2
_symmetry_space_group_name_H-M   'P 1'
_cell_length_a   5.92188943
_cell_length_b   6.53415825
_cell_length_c   22.64238600
_cell_angle_alpha   90.00000000
_cell_angle_beta   90.00000000
_cell_angle_gamma   90.00942982
_symmetry_Int_Tables_number   1
_chemical_formula_structural   SbO2
_chemical_formula_sum   'Sb4 O8'
_cell_volume   876.13721297
_cell_formula_units_Z   4
loop_
 _symmetry_equiv_pos_site_id
 _symmetry_equiv_pos_as_xyz
  1  'x, y, z'
loop_
 _atom_site_type_symbol
 _atom_site_label
 _atom_site_symmetry_multiplicity
 _atom_site_fract_x
 _atom_site_fract_y
 _atom_site_fract_z
 _atom_site_occupancy
  Sb  Sb1  1  0.746580  0.525255  0.542105  1
  Sb  Sb2  1  0.246435  0.472219  0.457863  1
  Sb  Sb3  1  0.496795  0.998711  0.500022  1
  Sb  Sb4  1  0.996805  0.998682  0.500044  1
  O  O5  1  0.746936  0.963197  0.558764  1
  O  O6  1  0.246535  0.034337  0.441194  1
  O  O7  1  0.746684  0.023616  0.442228  1
  O  O8  1  0.246908  0.973683  0.557766  1
  O  O9  1  0.498255  0.682743  0.491345  1
  O  O10  1  0.998516  0.314699  0.508663  1
  O  O11  1  0.494672  0.314715  0.508643  1
  O  O12  1  0.994800  0.682689  0.491361  1
