# generated using pymatgen
data_LiSn4(PO4)3
_symmetry_space_group_name_H-M   'P 1'
_cell_length_a   9.50699523
_cell_length_b   11.04237539
_cell_length_c   25.18996200
_cell_angle_alpha   90.00000000
_cell_angle_beta   90.00000000
_cell_angle_gamma   112.71880353
_symmetry_Int_Tables_number   1
_chemical_formula_structural   LiSn4(PO4)3
_chemical_formula_sum   'Li2 Sn8 P6 O24'
_cell_volume   2439.25921043
_cell_formula_units_Z   2
loop_
 _symmetry_equiv_pos_site_id
 _symmetry_equiv_pos_as_xyz
  1  'x, y, z'
loop_
 _atom_site_type_symbol
 _atom_site_label
 _atom_site_symmetry_multiplicity
 _atom_site_fract_x
 _atom_site_fract_y
 _atom_site_fract_z
 _atom_site_occupancy
  Li  Li1  1  0.540091  0.090564  0.424212  1
  Li  Li2  1  0.047902  0.609246  0.575788  1
  Sn  Sn3  1  0.333066  0.545895  0.433914  1
  Sn  Sn4  1  0.920069  0.267786  0.461022  1
  Sn  Sn5  1  0.876448  0.039656  0.579480  1
  Sn  Sn6  1  0.488064  0.815900  0.543600  1
  Sn  Sn7  1  0.099930  0.883910  0.456400  1
  Sn  Sn8  1  0.711545  0.660155  0.420520  1
  Sn  Sn9  1  0.667924  0.432025  0.538978  1
  Sn  Sn10  1  0.254927  0.153915  0.566086  1
  P  P11  1  0.833387  0.747801  0.552771  1
  P  P12  1  0.186911  0.409815  0.559175  1
  P  P13  1  0.020292  0.590176  0.460410  1
  P  P14  1  0.567702  0.109635  0.539590  1
  P  P15  1  0.401082  0.289996  0.440825  1
  P  P16  1  0.754606  0.952010  0.447229  1
  O  O17  1  0.855155  0.046110  0.492200  1
  O  O18  1  0.882254  0.665950  0.590754  1
  O  O19  1  0.097634  0.522992  0.423262  1
  O  O20  1  0.052762  0.286711  0.533220  1
  O  O21  1  0.294269  0.349956  0.586338  1
  O  O22  1  0.615343  0.836769  0.471911  1
  O  O23  1  0.950405  0.672564  0.425335  1
  O  O24  1  0.282159  0.502655  0.514111  1
  O  O25  1  0.894909  0.478761  0.491395  1
  O  O26  1  0.735062  0.820251  0.577788  1
  O  O27  1  0.124247  0.483565  0.596293  1
  O  O28  1  0.130934  0.695472  0.497688  1
  O  O29  1  0.457059  0.004338  0.502312  1
  O  O30  1  0.463747  0.216245  0.403707  1
  O  O31  1  0.852931  0.879559  0.422212  1
  O  O32  1  0.693084  0.221050  0.508605  1
  O  O33  1  0.305834  0.197156  0.485889  1
  O  O34  1  0.637589  0.027246  0.574665  1
  O  O35  1  0.972650  0.863041  0.528089  1
  O  O36  1  0.293724  0.349855  0.413662  1
  O  O37  1  0.535232  0.413100  0.466780  1
  O  O38  1  0.490359  0.176819  0.576738  1
  O  O39  1  0.705739  0.033860  0.409246  1
  O  O40  1  0.732838  0.653700  0.507800  1
