# generated using pymatgen
data_CuTe2Br
_symmetry_space_group_name_H-M   'P 1'
_cell_length_a   5.15760862
_cell_length_b   8.28190412
_cell_length_c   22.97503000
_cell_angle_alpha   90.00000000
_cell_angle_beta   90.00000000
_cell_angle_gamma   90.00000000
_symmetry_Int_Tables_number   1
_chemical_formula_structural   CuTe2Br
_chemical_formula_sum   'Cu2 Te4 Br2'
_cell_volume   981.37427277
_cell_formula_units_Z   2
loop_
 _symmetry_equiv_pos_site_id
 _symmetry_equiv_pos_as_xyz
  1  'x, y, z'
loop_
 _atom_site_type_symbol
 _atom_site_label
 _atom_site_symmetry_multiplicity
 _atom_site_fract_x
 _atom_site_fract_y
 _atom_site_fract_z
 _atom_site_occupancy
  Cu  Cu1  1  0.870744  0.826754  0.499986  1
  Cu  Cu2  1  0.370744  0.173246  0.500014  1
  Te  Te3  1  0.213541  0.655469  0.551654  1
  Te  Te4  1  0.029043  0.345139  0.552193  1
  Te  Te5  1  0.529043  0.654861  0.447807  1
  Te  Te6  1  0.713541  0.344531  0.448346  1
  Br  Br7  1  0.622258  0.000666  0.567175  1
  Br  Br8  1  0.122258  0.999334  0.432825  1
