# generated using pymatgen
data_HoTe3
_symmetry_space_group_name_H-M   'P 1'
_cell_length_a   4.02362693
_cell_length_b   4.60050623
_cell_length_c   30.43142900
_cell_angle_alpha   90.00000000
_cell_angle_beta   90.00000000
_cell_angle_gamma   90.00000000
_symmetry_Int_Tables_number   1
_chemical_formula_structural   HoTe3
_chemical_formula_sum   'Ho2 Te6'
_cell_volume   563.30768451
_cell_formula_units_Z   2
loop_
 _symmetry_equiv_pos_site_id
 _symmetry_equiv_pos_as_xyz
  1  'x, y, z'
loop_
 _atom_site_type_symbol
 _atom_site_label
 _atom_site_symmetry_multiplicity
 _atom_site_fract_x
 _atom_site_fract_y
 _atom_site_fract_z
 _atom_site_occupancy
  Ho  Ho1  1  0.000000  0.750000  0.546531  1
  Ho  Ho2  1  -0.000000  0.250000  0.453469  1
  Te  Te3  1  -0.000000  0.750000  0.650020  1
  Te  Te4  1  0.000000  0.250000  0.349980  1
  Te  Te5  1  0.500000  0.750000  0.329086  1
  Te  Te6  1  0.500000  0.250000  0.670914  1
  Te  Te7  1  0.500000  0.750000  0.452534  1
  Te  Te8  1  0.500000  0.250000  0.547466  1
