# generated using pymatgen
data_LiVCuO4
_symmetry_space_group_name_H-M   'P 1'
_cell_length_a   6.56216119
_cell_length_b   8.08054599
_cell_length_c   22.76588700
_cell_angle_alpha   90.00000000
_cell_angle_beta   90.00000000
_cell_angle_gamma   90.00000000
_symmetry_Int_Tables_number   1
_chemical_formula_structural   LiVCuO4
_chemical_formula_sum   'Li2 V2 Cu2 O8'
_cell_volume   1207.18040194
_cell_formula_units_Z   2
loop_
 _symmetry_equiv_pos_site_id
 _symmetry_equiv_pos_as_xyz
  1  'x, y, z'
loop_
 _atom_site_type_symbol
 _atom_site_label
 _atom_site_symmetry_multiplicity
 _atom_site_fract_x
 _atom_site_fract_y
 _atom_site_fract_z
 _atom_site_occupancy
  Li  Li1  1  0.250000  0.838472  0.500000  1
  Li  Li2  1  0.750000  0.161528  0.500000  1
  V  V3  1  0.750000  0.836363  0.500000  1
  V  V4  1  0.250000  0.163637  0.500000  1
  Cu  Cu5  1  0.000000  0.500000  0.500000  1
  Cu  Cu6  1  0.500000  0.500000  0.500000  1
  O  O7  1  0.991706  0.717559  0.500000  1
  O  O8  1  0.508294  0.717559  0.500000  1
  O  O9  1  0.750000  0.966250  0.442982  1
  O  O10  1  0.250000  0.033750  0.442982  1
  O  O11  1  0.750000  0.966250  0.557018  1
  O  O12  1  0.250000  0.033750  0.557018  1
  O  O13  1  0.008294  0.282441  0.500000  1
  O  O14  1  0.491706  0.282441  0.500000  1
