# generated using pymatgen
data_Mg(BrO3)2
_symmetry_space_group_name_H-M   'P 1'
_cell_length_a   4.93796873
_cell_length_b   4.93796868
_cell_length_c   23.41228800
_cell_angle_alpha   90.00000000
_cell_angle_beta   90.00000000
_cell_angle_gamma   67.81538445
_symmetry_Int_Tables_number   1
_chemical_formula_structural   Mg(BrO3)2
_chemical_formula_sum   'Mg1 Br2 O6'
_cell_volume   528.61365947
_cell_formula_units_Z   1
loop_
 _symmetry_equiv_pos_site_id
 _symmetry_equiv_pos_as_xyz
  1  'x, y, z'
loop_
 _atom_site_type_symbol
 _atom_site_label
 _atom_site_symmetry_multiplicity
 _atom_site_fract_x
 _atom_site_fract_y
 _atom_site_fract_z
 _atom_site_occupancy
  Mg  Mg1  1  0.000000  0.000000  0.500000  1
  Br  Br2  1  0.353771  0.353771  0.572414  1
  Br  Br3  1  0.646229  0.646229  0.427586  1
  O  O4  1  0.247639  0.247639  0.511524  1
  O  O5  1  0.752361  0.752361  0.488476  1
  O  O6  1  0.279604  0.765774  0.432698  1
  O  O7  1  0.765774  0.279604  0.432698  1
  O  O8  1  0.720396  0.234226  0.567302  1
  O  O9  1  0.234226  0.720396  0.567302  1
