# generated using pymatgen
data_SrFe2Se2O
_symmetry_space_group_name_H-M   'P 1'
_cell_length_a   4.36940361
_cell_length_b   9.91192514
_cell_length_c   26.55183600
_cell_angle_alpha   90.00000000
_cell_angle_beta   90.00000000
_cell_angle_gamma   90.00000000
_symmetry_Int_Tables_number   1
_chemical_formula_structural   SrFe2Se2O
_chemical_formula_sum   'Sr2 Fe4 Se4 O2'
_cell_volume   1149.93881522
_cell_formula_units_Z   2
loop_
 _symmetry_equiv_pos_site_id
 _symmetry_equiv_pos_as_xyz
  1  'x, y, z'
loop_
 _atom_site_type_symbol
 _atom_site_label
 _atom_site_symmetry_multiplicity
 _atom_site_fract_x
 _atom_site_fract_y
 _atom_site_fract_z
 _atom_site_occupancy
  Sr  Sr1  1  0.500000  0.500000  0.402974  1
  Sr  Sr2  1  0.000000  -0.000000  0.597026  1
  Fe  Fe3  1  0.500000  0.812480  0.532233  1
  Fe  Fe4  1  0.500000  0.187520  0.532233  1
  Fe  Fe5  1  -0.000000  0.312480  0.467767  1
  Fe  Fe6  1  0.000000  0.687520  0.467767  1
  Se  Se7  1  0.500000  0.796287  0.434825  1
  Se  Se8  1  0.500000  0.203713  0.434825  1
  Se  Se9  1  -0.000000  0.296287  0.565175  1
  Se  Se10  1  0.000000  0.703713  0.565175  1
  O  O11  1  0.500000  0.000000  0.560012  1
  O  O12  1  0.000000  0.500000  0.439988  1
