# generated using pymatgen
data_MgCr2O5
_symmetry_space_group_name_H-M   'P 1'
_cell_length_a   3.83989720
_cell_length_b   11.33033803
_cell_length_c   24.22700900
_cell_angle_alpha   90.00000000
_cell_angle_beta   90.00000000
_cell_angle_gamma   90.00000000
_symmetry_Int_Tables_number   1
_chemical_formula_structural   MgCr2O5
_chemical_formula_sum   'Mg2 Cr4 O10'
_cell_volume   1054.05255485
_cell_formula_units_Z   2
loop_
 _symmetry_equiv_pos_site_id
 _symmetry_equiv_pos_as_xyz
  1  'x, y, z'
loop_
 _atom_site_type_symbol
 _atom_site_label
 _atom_site_symmetry_multiplicity
 _atom_site_fract_x
 _atom_site_fract_y
 _atom_site_fract_z
 _atom_site_occupancy
  Mg  Mg1  1  0.500000  0.000000  0.461262  1
  Mg  Mg2  1  0.000000  0.500000  0.538738  1
  Cr  Cr3  1  0.000000  0.843427  0.514400  1
  Cr  Cr4  1  0.500000  0.656573  0.485600  1
  Cr  Cr5  1  0.500000  0.343427  0.485600  1
  Cr  Cr6  1  0.000000  0.156573  0.514400  1
  O  O7  1  0.500000  0.500000  0.526110  1
  O  O8  1  -0.000000  -0.000000  0.473890  1
  O  O9  1  0.500000  0.830899  0.489075  1
  O  O10  1  -0.000000  0.669101  0.510925  1
  O  O11  1  0.500000  0.169101  0.489075  1
  O  O12  1  -0.000000  0.330899  0.510925  1
  O  O13  1  -0.000000  0.111679  0.579721  1
  O  O14  1  0.500000  0.388321  0.420279  1
  O  O15  1  0.500000  0.611679  0.420279  1
  O  O16  1  -0.000000  0.888321  0.579721  1
