# generated using pymatgen
data_Nd2BC
_symmetry_space_group_name_H-M   'P 1'
_cell_length_a   3.61376863
_cell_length_b   7.37404668
_cell_length_c   23.42822800
_cell_angle_alpha   90.00000000
_cell_angle_beta   90.00000000
_cell_angle_gamma   104.18378409
_symmetry_Int_Tables_number   1
_chemical_formula_structural   Nd2BC
_chemical_formula_sum   'Nd4 B2 C2'
_cell_volume   605.28523991
_cell_formula_units_Z   2
loop_
 _symmetry_equiv_pos_site_id
 _symmetry_equiv_pos_as_xyz
  1  'x, y, z'
loop_
 _atom_site_type_symbol
 _atom_site_label
 _atom_site_symmetry_multiplicity
 _atom_site_fract_x
 _atom_site_fract_y
 _atom_site_fract_z
 _atom_site_occupancy
  Nd  Nd1  1  0.305302  0.610603  0.557496  1
  Nd  Nd2  1  0.694698  0.389397  0.442504  1
  Nd  Nd3  1  0.435852  0.871704  0.427449  1
  Nd  Nd4  1  0.564148  0.128296  0.572551  1
  B  B5  1  0.945774  0.891549  0.513108  1
  B  B6  1  0.054226  0.108451  0.486892  1
  C  C7  1  0.150070  0.300141  0.514014  1
  C  C8  1  0.849930  0.699859  0.485986  1
