# generated using pymatgen
data_Li4Ni(PO3)6
_symmetry_space_group_name_H-M   'P 1'
_cell_length_a   7.28108986
_cell_length_b   7.29318741
_cell_length_c   29.77676900
_cell_angle_alpha   90.00000000
_cell_angle_beta   90.00000000
_cell_angle_gamma   112.30423378
_symmetry_Int_Tables_number   1
_chemical_formula_structural   Li4Ni(PO3)6
_chemical_formula_sum   'Li4 Ni1 P6 O18'
_cell_volume   1462.91252891
_cell_formula_units_Z   1
loop_
 _symmetry_equiv_pos_site_id
 _symmetry_equiv_pos_as_xyz
  1  'x, y, z'
loop_
 _atom_site_type_symbol
 _atom_site_label
 _atom_site_symmetry_multiplicity
 _atom_site_fract_x
 _atom_site_fract_y
 _atom_site_fract_z
 _atom_site_occupancy
  Li  Li1  1  0.656990  0.891871  0.459992  1
  Li  Li2  1  0.963785  0.620058  0.588008  1
  Li  Li3  1  0.017692  0.925469  0.527619  1
  Li  Li4  1  0.666275  0.586161  0.527910  1
  Ni  Ni5  1  0.020611  0.240780  0.459779  1
  P  P6  1  0.302037  0.021011  0.441005  1
  P  P7  1  0.954604  0.657053  0.445770  1
  P  P8  1  0.973939  0.948180  0.379786  1
  P  P9  1  0.725108  0.880139  0.614358  1
  P  P10  1  0.750801  0.186740  0.550361  1
  P  P11  1  0.407513  0.819616  0.550482  1
  O  O12  1  0.222068  0.132058  0.474906  1
  O  O13  1  0.842321  0.727327  0.480189  1
  O  O14  1  0.187901  0.785341  0.452061  1
  O  O15  1  0.516269  0.061550  0.441403  1
  O  O16  1  0.881236  0.036257  0.416018  1
  O  O17  1  0.214499  0.037148  0.392460  1
  O  O18  1  0.925219  0.443828  0.447044  1
  O  O19  1  0.747604  0.865397  0.662644  1
  O  O20  1  0.911589  0.715163  0.396551  1
  O  O21  1  0.790357  0.115129  0.598731  1
  O  O22  1  0.938054  0.959603  0.332185  1
  O  O23  1  0.780347  0.400619  0.552869  1
  O  O24  1  0.488758  0.795307  0.599458  1
  O  O25  1  0.824681  0.792118  0.580082  1
  O  O26  1  0.190823  0.779840  0.554126  1
  O  O27  1  0.519403  0.058408  0.542336  1
  O  O28  1  0.872397  0.124305  0.516219  1
  O  O29  1  0.479438  0.713479  0.515650  1
