# generated using pymatgen
data_Li2CuF5
_symmetry_space_group_name_H-M   'P 1'
_cell_length_a   2.87518328
_cell_length_b   8.56428875
_cell_length_c   22.39304700
_cell_angle_alpha   90.00000000
_cell_angle_beta   90.00000000
_cell_angle_gamma   90.01250811
_symmetry_Int_Tables_number   1
_chemical_formula_structural   Li2CuF5
_chemical_formula_sum   'Li2 Cu1 F5'
_cell_volume   551.40413277
_cell_formula_units_Z   1
loop_
 _symmetry_equiv_pos_site_id
 _symmetry_equiv_pos_as_xyz
  1  'x, y, z'
loop_
 _atom_site_type_symbol
 _atom_site_label
 _atom_site_symmetry_multiplicity
 _atom_site_fract_x
 _atom_site_fract_y
 _atom_site_fract_z
 _atom_site_occupancy
  Li  Li1  1  0.511596  0.852220  0.517021  1
  Li  Li2  1  0.511370  0.149187  0.483301  1
  Cu  Cu3  1  0.010486  0.500354  0.499943  1
  F  F4  1  0.011985  0.000762  0.500262  1
  F  F5  1  0.010731  0.705835  0.531750  1
  F  F6  1  0.510423  0.561465  0.446972  1
  F  F7  1  0.510439  0.439049  0.552821  1
  F  F8  1  0.010620  0.295040  0.467931  1
