# generated using pymatgen
data_SrH9ClO5
_symmetry_space_group_name_H-M   'P 1'
_cell_length_a   5.99758215
_cell_length_b   7.63464448
_cell_length_c   27.36506900
_cell_angle_alpha   90.00000000
_cell_angle_beta   90.00000000
_cell_angle_gamma   72.06436113
_symmetry_Int_Tables_number   1
_chemical_formula_structural   SrH9ClO5
_chemical_formula_sum   'Sr2 H18 Cl2 O10'
_cell_volume   1192.13683013
_cell_formula_units_Z   2
loop_
 _symmetry_equiv_pos_site_id
 _symmetry_equiv_pos_as_xyz
  1  'x, y, z'
loop_
 _atom_site_type_symbol
 _atom_site_label
 _atom_site_symmetry_multiplicity
 _atom_site_fract_x
 _atom_site_fract_y
 _atom_site_fract_z
 _atom_site_occupancy
  Sr  Sr1  1  0.431904  0.271680  0.502420  1
  Sr  Sr2  1  0.771289  0.704126  0.497580  1
  H  H3  1  0.459892  0.790469  0.592196  1
  H  H4  1  0.743301  0.185336  0.407804  1
  H  H5  1  0.301462  0.939951  0.553019  1
  H  H6  1  0.901731  0.035854  0.446981  1
  H  H7  1  0.177042  0.514202  0.578989  1
  H  H8  1  0.026151  0.461604  0.421011  1
  H  H9  1  0.251123  0.667071  0.550312  1
  H  H10  1  0.952070  0.308734  0.449688  1
  H  H11  1  0.524408  0.577399  0.422841  1
  H  H12  1  0.678785  0.398406  0.577159  1
  H  H13  1  0.295316  0.666981  0.454760  1
  H  H14  1  0.907877  0.308824  0.545240  1
  H  H15  1  0.275688  0.936746  0.452503  1
  H  H16  1  0.927505  0.039060  0.547497  1
  H  H17  1  0.503355  0.930964  0.422183  1
  H  H18  1  0.699838  0.044841  0.577817  1
  H  H19  1  0.184065  0.165979  0.581718  1
  H  H20  1  0.019127  0.809826  0.418282  1
  Cl  Cl21  1  0.455564  0.281449  0.619342  1
  Cl  Cl22  1  0.747629  0.694356  0.380658  1
  O  O23  1  0.415482  0.802766  0.557711  1
  O  O24  1  0.787711  0.173039  0.442289  1
  O  O25  1  0.156883  0.578419  0.547173  1
  O  O26  1  0.046310  0.397386  0.452827  1
  O  O27  1  0.448449  0.562236  0.454246  1
  O  O28  1  0.754744  0.413569  0.545754  1
  O  O29  1  0.422512  0.977027  0.453434  1
  O  O30  1  0.780681  0.998778  0.546566  1
  O  O31  1  0.146712  0.129301  0.548864  1
  O  O32  1  0.056481  0.846504  0.451136  1
