# generated using pymatgen
data_CuTeO4
_symmetry_space_group_name_H-M   'P 1'
_cell_length_a   2.99772188
_cell_length_b   6.07566639
_cell_length_c   22.48401829
_cell_angle_alpha   90.06138809
_cell_angle_beta   90.00058194
_cell_angle_gamma   89.99931189
_symmetry_Int_Tables_number   1
_chemical_formula_structural   CuTeO4
_chemical_formula_sum   'Cu1 Te1 O4'
_cell_volume   409.50474395
_cell_formula_units_Z   1
loop_
 _symmetry_equiv_pos_site_id
 _symmetry_equiv_pos_as_xyz
  1  'x, y, z'
loop_
 _atom_site_type_symbol
 _atom_site_label
 _atom_site_symmetry_multiplicity
 _atom_site_fract_x
 _atom_site_fract_y
 _atom_site_fract_z
 _atom_site_occupancy
  Cu  Cu1  1  0.000935  0.584460  0.500000  1
  Te  Te2  1  0.500935  0.084460  0.500000  1
  O  O3  1  0.000942  0.030234  0.443599  1
  O  O4  1  0.500921  0.394007  0.478385  1
  O  O5  1  0.000929  0.138687  0.556400  1
  O  O6  1  0.500950  0.774913  0.521615  1
