# generated using pymatgen
data_SrP2(HO)4
_symmetry_space_group_name_H-M   'P 1'
_cell_length_a   5.94221373
_cell_length_b   5.94282538
_cell_length_c   26.20639075
_cell_angle_alpha   90.00000000
_cell_angle_beta   89.98012443
_cell_angle_gamma   90.00000000
_symmetry_Int_Tables_number   1
_chemical_formula_structural   SrP2(HO)4
_chemical_formula_sum   'Sr2 P4 H8 O8'
_cell_volume   925.44033485
_cell_formula_units_Z   2
loop_
 _symmetry_equiv_pos_site_id
 _symmetry_equiv_pos_as_xyz
  1  'x, y, z'
loop_
 _atom_site_type_symbol
 _atom_site_label
 _atom_site_symmetry_multiplicity
 _atom_site_fract_x
 _atom_site_fract_y
 _atom_site_fract_z
 _atom_site_occupancy
  Sr  Sr1  1  0.250000  0.251443  0.500000  1
  Sr  Sr2  1  0.750000  0.748557  0.500000  1
  P  P3  1  0.249982  0.752368  0.416972  1
  P  P4  1  0.250018  0.752368  0.583028  1
  P  P5  1  0.750018  0.247632  0.583028  1
  P  P6  1  0.749982  0.247632  0.416972  1
  H  H7  1  0.619184  0.374233  0.617954  1
  H  H8  1  0.380816  0.625767  0.382046  1
  H  H9  1  0.119184  0.625767  0.617954  1
  H  H10  1  0.880816  0.374233  0.382046  1
  H  H11  1  0.119451  0.887475  0.383758  1
  H  H12  1  0.380549  0.887476  0.616242  1
  H  H13  1  0.619451  0.112525  0.383758  1
  H  H14  1  0.880549  0.112525  0.616242  1
  O  O15  1  0.095983  0.902977  0.551436  1
  O  O16  1  0.404017  0.902977  0.448564  1
  O  O17  1  0.595757  0.404689  0.446846  1
  O  O18  1  0.095757  0.595311  0.446846  1
  O  O19  1  0.904243  0.404689  0.553154  1
  O  O20  1  0.404243  0.595311  0.553154  1
  O  O21  1  0.904017  0.097023  0.448564  1
  O  O22  1  0.595983  0.097023  0.551436  1
