# generated using pymatgen
data_ZnO2
_symmetry_space_group_name_H-M   'P 1'
_cell_length_a   3.10401737
_cell_length_b   3.10437712
_cell_length_c   21.87864400
_cell_angle_alpha   90.00000000
_cell_angle_beta   90.00000000
_cell_angle_gamma   119.99615625
_symmetry_Int_Tables_number   1
_chemical_formula_structural   ZnO2
_chemical_formula_sum   'Zn1 O2'
_cell_volume   182.58557788
_cell_formula_units_Z   1
loop_
 _symmetry_equiv_pos_site_id
 _symmetry_equiv_pos_as_xyz
  1  'x, y, z'
loop_
 _atom_site_type_symbol
 _atom_site_label
 _atom_site_symmetry_multiplicity
 _atom_site_fract_x
 _atom_site_fract_y
 _atom_site_fract_z
 _atom_site_occupancy
  Zn  Zn1  1  -0.000000  0.000000  0.500000  1
  O  O2  1  0.333297  0.666594  0.456901  1
  O  O3  1  0.666703  0.333406  0.543099  1
