# generated using pymatgen
data_Li2VF6
_symmetry_space_group_name_H-M   'P 1'
_cell_length_a   5.72603432
_cell_length_b   8.16917516
_cell_length_c   25.00345473
_cell_angle_alpha   90.00000000
_cell_angle_beta   90.00000000
_cell_angle_gamma   90.00388434
_symmetry_Int_Tables_number   1
_chemical_formula_structural   Li2VF6
_chemical_formula_sum   'Li4 V2 F12'
_cell_volume   1169.58603208
_cell_formula_units_Z   2
loop_
 _symmetry_equiv_pos_site_id
 _symmetry_equiv_pos_as_xyz
  1  'x, y, z'
loop_
 _atom_site_type_symbol
 _atom_site_label
 _atom_site_symmetry_multiplicity
 _atom_site_fract_x
 _atom_site_fract_y
 _atom_site_fract_z
 _atom_site_occupancy
  Li  Li1  1  0.500468  0.018229  0.545619  1
  Li  Li2  1  0.499592  0.476712  0.527758  1
  Li  Li3  1  0.999592  0.976712  0.472242  1
  Li  Li4  1  0.000468  0.518229  0.454381  1
  V  V5  1  0.499984  0.244119  0.442681  1
  V  V6  1  -0.000016  0.744119  0.557319  1
  F  F7  1  0.499288  0.233209  0.521168  1
  F  F8  1  0.724214  0.413153  0.457198  1
  F  F9  1  0.730517  0.081571  0.444103  1
  F  F10  1  0.278106  0.414737  0.456898  1
  F  F11  1  0.230517  0.581571  0.555897  1
  F  F12  1  0.501058  0.284975  0.373617  1
  F  F13  1  0.001058  0.784975  0.626383  1
  F  F14  1  0.266873  0.083294  0.444001  1
  F  F15  1  0.224214  0.913153  0.542802  1
  F  F16  1  0.766873  0.583294  0.555999  1
  F  F17  1  0.778107  0.914737  0.543102  1
  F  F18  1  0.999288  0.733209  0.478832  1
