# generated using pymatgen
data_TaI2O
_symmetry_space_group_name_H-M   'P 1'
_cell_length_a   3.89801939
_cell_length_b   7.48232712
_cell_length_c   24.72230779
_cell_angle_alpha   90.00527962
_cell_angle_beta   90.00000000
_cell_angle_gamma   90.00000000
_symmetry_Int_Tables_number   1
_chemical_formula_structural   TaI2O
_chemical_formula_sum   'Ta2 I4 O2'
_cell_volume   721.05715939
_cell_formula_units_Z   2
loop_
 _symmetry_equiv_pos_site_id
 _symmetry_equiv_pos_as_xyz
  1  'x, y, z'
loop_
 _atom_site_type_symbol
 _atom_site_label
 _atom_site_symmetry_multiplicity
 _atom_site_fract_x
 _atom_site_fract_y
 _atom_site_fract_z
 _atom_site_occupancy
  Ta  Ta1  1  0.000000  0.206440  0.499968  1
  Ta  Ta2  1  -0.000000  0.793560  0.500032  1
  I  I3  1  0.000000  0.499918  0.576575  1
  I  I4  1  0.000000  0.500082  0.423425  1
  I  I5  1  -0.000000  0.000199  0.594173  1
  I  I6  1  -0.000000  0.999801  0.405827  1
  O  O7  1  0.500000  0.212905  0.499961  1
  O  O8  1  0.500000  0.787095  0.500039  1
