# generated using pymatgen
data_LaI3
_symmetry_space_group_name_H-M   'P 1'
_cell_length_a   4.39990787
_cell_length_b   10.08827734
_cell_length_c   24.85506000
_cell_angle_alpha   90.00000000
_cell_angle_beta   90.00000000
_cell_angle_gamma   90.00000000
_symmetry_Int_Tables_number   1
_chemical_formula_structural   LaI3
_chemical_formula_sum   'La2 I6'
_cell_volume   1103.25374865
_cell_formula_units_Z   2
loop_
 _symmetry_equiv_pos_site_id
 _symmetry_equiv_pos_as_xyz
  1  'x, y, z'
loop_
 _atom_site_type_symbol
 _atom_site_label
 _atom_site_symmetry_multiplicity
 _atom_site_fract_x
 _atom_site_fract_y
 _atom_site_fract_z
 _atom_site_occupancy
  La  La1  1  0.500000  -0.000000  0.505342  1
  La  La2  1  -0.000000  0.500000  0.494658  1
  I  I3  1  0.000000  0.184806  0.440038  1
  I  I4  1  0.500000  0.315194  0.559962  1
  I  I5  1  0.500000  0.500000  0.401994  1
  I  I6  1  0.000000  -0.000000  0.598006  1
  I  I7  1  0.000000  0.815194  0.440038  1
  I  I8  1  0.500000  0.684806  0.559962  1
