# generated using pymatgen
data_YbBrO
_symmetry_space_group_name_H-M   'P 1'
_cell_length_a   3.61904725
_cell_length_b   3.61904725
_cell_length_c   26.06661000
_cell_angle_alpha   90.00000000
_cell_angle_beta   90.00000000
_cell_angle_gamma   90.00000000
_symmetry_Int_Tables_number   1
_chemical_formula_structural   YbBrO
_chemical_formula_sum   'Yb2 Br2 O2'
_cell_volume   341.40750262
_cell_formula_units_Z   2
loop_
 _symmetry_equiv_pos_site_id
 _symmetry_equiv_pos_as_xyz
  1  'x, y, z'
loop_
 _atom_site_type_symbol
 _atom_site_label
 _atom_site_symmetry_multiplicity
 _atom_site_fract_x
 _atom_site_fract_y
 _atom_site_fract_z
 _atom_site_occupancy
  Yb  Yb1  1  -0.000000  0.500000  0.552966  1
  Yb  Yb2  1  0.500000  -0.000000  0.447034  1
  Br  Br3  1  0.000000  0.500000  0.384311  1
  Br  Br4  1  0.500000  0.000000  0.615689  1
  O  O5  1  -0.000000  0.000000  0.500000  1
  O  O6  1  0.500000  0.500000  0.500000  1
