# generated using pymatgen
data_Br
_symmetry_space_group_name_H-M   'P 1'
_cell_length_a   4.17798989
_cell_length_b   8.73691805
_cell_length_c   19.86158198
_cell_angle_alpha   90.00000000
_cell_angle_beta   90.00000000
_cell_angle_gamma   90.00000000
_symmetry_Int_Tables_number   1
_chemical_formula_structural   Br
_chemical_formula_sum   Br4
_cell_volume   725.00246654
_cell_formula_units_Z   4
loop_
 _symmetry_equiv_pos_site_id
 _symmetry_equiv_pos_as_xyz
  1  'x, y, z'
loop_
 _atom_site_type_symbol
 _atom_site_label
 _atom_site_symmetry_multiplicity
 _atom_site_fract_x
 _atom_site_fract_y
 _atom_site_fract_z
 _atom_site_occupancy
  Br  Br1  1  0.853133  0.881523  0.500000  1
  Br  Br2  1  0.646867  0.381523  0.500000  1
  Br  Br3  1  0.353133  0.618477  0.500000  1
  Br  Br4  1  0.146867  0.118477  0.500000  1
