# generated using pymatgen
data_MgSn
_symmetry_space_group_name_H-M   'P 1'
_cell_length_a   3.36278545
_cell_length_b   3.36278484
_cell_length_c   32.57271900
_cell_angle_alpha   90.00000000
_cell_angle_beta   90.00000000
_cell_angle_gamma   119.99999610
_symmetry_Int_Tables_number   1
_chemical_formula_structural   MgSn
_chemical_formula_sum   'Mg3 Sn3'
_cell_volume   318.99428431
_cell_formula_units_Z   3
loop_
 _symmetry_equiv_pos_site_id
 _symmetry_equiv_pos_as_xyz
  1  'x, y, z'
loop_
 _atom_site_type_symbol
 _atom_site_label
 _atom_site_symmetry_multiplicity
 _atom_site_fract_x
 _atom_site_fract_y
 _atom_site_fract_z
 _atom_site_occupancy
  Mg  Mg1  1  0.666667  0.333333  0.462704  1
  Mg  Mg2  1  -0.000000  0.000000  0.386208  1
  Mg  Mg3  1  0.666667  0.333333  0.613694  1
  Sn  Sn4  1  -0.000000  0.000000  0.539066  1
  Sn  Sn5  1  0.666667  0.333333  0.309195  1
  Sn  Sn6  1  -0.000000  0.000000  0.689132  1
