# generated using pymatgen
data_SbOF3
_symmetry_space_group_name_H-M   'P 1'
_cell_length_a   7.80427338
_cell_length_b   8.14863368
_cell_length_c   25.54834200
_cell_angle_alpha   90.00000000
_cell_angle_beta   90.00000000
_cell_angle_gamma   94.84036308
_symmetry_Int_Tables_number   1
_chemical_formula_structural   SbOF3
_chemical_formula_sum   'Sb4 O4 F12'
_cell_volume   1618.93115714
_cell_formula_units_Z   4
loop_
 _symmetry_equiv_pos_site_id
 _symmetry_equiv_pos_as_xyz
  1  'x, y, z'
loop_
 _atom_site_type_symbol
 _atom_site_label
 _atom_site_symmetry_multiplicity
 _atom_site_fract_x
 _atom_site_fract_y
 _atom_site_fract_z
 _atom_site_occupancy
  Sb  Sb1  1  0.032383  0.707941  0.507201  1
  Sb  Sb2  1  0.675147  0.945632  0.466179  1
  Sb  Sb3  1  0.324853  0.054368  0.533821  1
  Sb  Sb4  1  0.967617  0.292059  0.492799  1
  O  O5  1  0.250311  0.822790  0.526198  1
  O  O6  1  0.871895  0.873951  0.502117  1
  O  O7  1  0.128105  0.126049  0.497883  1
  O  O8  1  0.749689  0.177210  0.473802  1
  F  F9  1  0.152356  0.488602  0.510642  1
  F  F10  1  0.552968  0.735002  0.463987  1
  F  F11  1  0.081063  0.703858  0.434656  1
  F  F12  1  0.968757  0.659653  0.577247  1
  F  F13  1  0.281069  0.056098  0.606375  1
  F  F14  1  0.563548  0.965278  0.542093  1
  F  F15  1  0.436452  0.034722  0.457907  1
  F  F16  1  0.718931  0.943902  0.393625  1
  F  F17  1  0.031243  0.340347  0.422753  1
  F  F18  1  0.918937  0.296142  0.565344  1
  F  F19  1  0.447032  0.264998  0.536013  1
  F  F20  1  0.847644  0.511398  0.489358  1
