# generated using pymatgen
data_CuSbS2
_symmetry_space_group_name_H-M   'P 1'
_cell_length_a   3.76808052
_cell_length_b   6.12005610
_cell_length_c   25.43327200
_cell_angle_alpha   90.00000000
_cell_angle_beta   90.00000000
_cell_angle_gamma   90.00000000
_symmetry_Int_Tables_number   1
_chemical_formula_structural   CuSbS2
_chemical_formula_sum   'Cu2 Sb2 S4'
_cell_volume   586.51323103
_cell_formula_units_Z   2
loop_
 _symmetry_equiv_pos_site_id
 _symmetry_equiv_pos_as_xyz
  1  'x, y, z'
loop_
 _atom_site_type_symbol
 _atom_site_label
 _atom_site_symmetry_multiplicity
 _atom_site_fract_x
 _atom_site_fract_y
 _atom_site_fract_z
 _atom_site_occupancy
  Cu  Cu1  1  0.000000  0.257200  0.544041  1
  Cu  Cu2  1  0.000000  0.757200  0.455959  1
  Sb  Sb3  1  0.500000  0.256827  0.395473  1
  Sb  Sb4  1  0.500000  0.756827  0.604527  1
  S  S5  1  0.500000  0.871646  0.412206  1
  S  S6  1  0.500000  0.371646  0.587794  1
  S  S7  1  -0.000000  0.881068  0.541549  1
  S  S8  1  -0.000000  0.381068  0.458451  1
