# generated using pymatgen
data_NdZnPO
_symmetry_space_group_name_H-M   'P 1'
_cell_length_a   3.98845764
_cell_length_b   3.98845810
_cell_length_c   28.56820600
_cell_angle_alpha   90.00000000
_cell_angle_beta   90.00000000
_cell_angle_gamma   59.99999552
_symmetry_Int_Tables_number   1
_chemical_formula_structural   NdZnPO
_chemical_formula_sum   'Nd2 Zn2 P2 O2'
_cell_volume   393.57146082
_cell_formula_units_Z   2
loop_
 _symmetry_equiv_pos_site_id
 _symmetry_equiv_pos_as_xyz
  1  'x, y, z'
loop_
 _atom_site_type_symbol
 _atom_site_label
 _atom_site_symmetry_multiplicity
 _atom_site_fract_x
 _atom_site_fract_y
 _atom_site_fract_z
 _atom_site_occupancy
  Nd  Nd1  1  0.333333  0.333333  0.552635  1
  Nd  Nd2  1  0.000000  -0.000000  0.447365  1
  Zn  Zn3  1  -0.000000  -0.000000  0.643207  1
  Zn  Zn4  1  0.333333  0.333333  0.356793  1
  P  P5  1  0.666667  0.666667  0.371511  1
  P  P6  1  0.666667  0.666667  0.628489  1
  O  O7  1  0.333333  0.333333  0.468816  1
  O  O8  1  0.000000  -0.000000  0.531184  1
