# generated using pymatgen
data_Fe2C2O7
_symmetry_space_group_name_H-M   'P 1'
_cell_length_a   4.93220285
_cell_length_b   4.93818969
_cell_length_c   24.99564500
_cell_angle_alpha   90.00000000
_cell_angle_beta   90.00000000
_cell_angle_gamma   60.08380809
_symmetry_Int_Tables_number   1
_chemical_formula_structural   Fe2C2O7
_chemical_formula_sum   'Fe2 C2 O7'
_cell_volume   527.67901564
_cell_formula_units_Z   1
loop_
 _symmetry_equiv_pos_site_id
 _symmetry_equiv_pos_as_xyz
  1  'x, y, z'
loop_
 _atom_site_type_symbol
 _atom_site_label
 _atom_site_symmetry_multiplicity
 _atom_site_fract_x
 _atom_site_fract_y
 _atom_site_fract_z
 _atom_site_occupancy
  Fe  Fe1  1  0.366453  0.328267  0.572721  1
  Fe  Fe2  1  0.356574  0.328733  0.427297  1
  C  C3  1  0.699064  0.664411  0.598530  1
  C  C4  1  0.688625  0.664647  0.401461  1
  O  O5  1  0.433396  0.931592  0.400301  1
  O  O6  1  0.443428  0.653017  0.597507  1
  O  O7  1  0.687545  0.931432  0.599625  1
  O  O8  1  0.363438  0.323306  0.500016  1
  O  O9  1  0.955630  0.653348  0.402356  1
  O  O10  1  0.676728  0.409487  0.401332  1
  O  O11  1  0.965921  0.409275  0.598855  1
