# generated using pymatgen
data_GeSe
_symmetry_space_group_name_H-M   'P 1'
_cell_length_a   3.91877142
_cell_length_b   4.45319417
_cell_length_c   22.78533200
_cell_angle_alpha   90.00000000
_cell_angle_beta   90.00000000
_cell_angle_gamma   90.00000000
_symmetry_Int_Tables_number   1
_chemical_formula_structural   GeSe
_chemical_formula_sum   'Ge2 Se2'
_cell_volume   397.62796894
_cell_formula_units_Z   2
loop_
 _symmetry_equiv_pos_site_id
 _symmetry_equiv_pos_as_xyz
  1  'x, y, z'
loop_
 _atom_site_type_symbol
 _atom_site_label
 _atom_site_symmetry_multiplicity
 _atom_site_fract_x
 _atom_site_fract_y
 _atom_site_fract_z
 _atom_site_occupancy
  Ge  Ge1  1  -0.000000  0.108982  0.444272  1
  Ge  Ge2  1  0.500000  0.608982  0.555728  1
  Se  Se3  1  0.500000  0.504015  0.445172  1
  Se  Se4  1  0.000000  0.004015  0.554828  1
