# generated using pymatgen
data_TlIn(PSe3)2
_symmetry_space_group_name_H-M   'P 1'
_cell_length_a   6.51751361
_cell_length_b   12.93109689
_cell_length_c   24.53942600
_cell_angle_alpha   90.00000000
_cell_angle_beta   90.00000000
_cell_angle_gamma   77.01563462
_symmetry_Int_Tables_number   1
_chemical_formula_structural   TlIn(PSe3)2
_chemical_formula_sum   'Tl2 In2 P4 Se12'
_cell_volume   2015.26883118
_cell_formula_units_Z   2
loop_
 _symmetry_equiv_pos_site_id
 _symmetry_equiv_pos_as_xyz
  1  'x, y, z'
loop_
 _atom_site_type_symbol
 _atom_site_label
 _atom_site_symmetry_multiplicity
 _atom_site_fract_x
 _atom_site_fract_y
 _atom_site_fract_z
 _atom_site_occupancy
  Tl  Tl1  1  0.336684  0.583653  0.559162  1
  Tl  Tl2  1  0.836395  0.602023  0.440838  1
  In  In3  1  0.375604  0.004198  0.493789  1
  In  In4  1  0.797475  0.181479  0.506211  1
  P  P5  1  0.939802  0.861422  0.535892  1
  P  P6  1  0.233276  0.324255  0.464108  1
  P  P7  1  0.934333  0.876897  0.442700  1
  P  P8  1  0.238746  0.308780  0.557300  1
  Se  Se9  1  0.909130  0.325730  0.436824  1
  Se  Se10  1  0.263948  0.859946  0.563176  1
  Se  Se11  1  0.014273  0.439961  0.591570  1
  Se  Se12  1  0.158805  0.745715  0.408430  1
  Se  Se13  1  0.466981  0.178733  0.433100  1
  Se  Se14  1  0.706097  0.006943  0.566900  1
  Se  Se15  1  0.153390  0.150510  0.573341  1
  Se  Se16  1  0.019689  0.035166  0.426659  1
  Se  Se17  1  0.324757  0.470792  0.442331  1
  Se  Se18  1  0.848321  0.714884  0.557669  1
  Se  Se19  1  0.565562  0.310621  0.582390  1
  Se  Se20  1  0.607516  0.875056  0.417610  1
