# generated using pymatgen
data_SbPO4
_symmetry_space_group_name_H-M   'P 1'
_cell_length_a   4.73742595
_cell_length_b   9.70217864
_cell_length_c   22.39936700
_cell_angle_alpha   90.00000000
_cell_angle_beta   90.00000000
_cell_angle_gamma   90.00000000
_symmetry_Int_Tables_number   1
_chemical_formula_structural   SbPO4
_chemical_formula_sum   'Sb2 P2 O8'
_cell_volume   1029.55000928
_cell_formula_units_Z   2
loop_
 _symmetry_equiv_pos_site_id
 _symmetry_equiv_pos_as_xyz
  1  'x, y, z'
loop_
 _atom_site_type_symbol
 _atom_site_label
 _atom_site_symmetry_multiplicity
 _atom_site_fract_x
 _atom_site_fract_y
 _atom_site_fract_z
 _atom_site_occupancy
  Sb  Sb1  1  0.647939  0.702535  0.500000  1
  Sb  Sb2  1  0.352061  0.202535  0.500000  1
  P  P3  1  0.048843  0.902833  0.500000  1
  P  P4  1  0.951157  0.402833  0.500000  1
  O  O5  1  0.901644  0.824092  0.446233  1
  O  O6  1  0.098356  0.324092  0.446233  1
  O  O7  1  0.370874  0.885048  0.500000  1
  O  O8  1  0.015793  0.557942  0.500000  1
  O  O9  1  0.984207  0.057942  0.500000  1
  O  O10  1  0.629126  0.385048  0.500000  1
  O  O11  1  0.901644  0.824092  0.553767  1
  O  O12  1  0.098356  0.324092  0.553767  1
