# generated using pymatgen
data_MoO3
_symmetry_space_group_name_H-M   'P 1'
_cell_length_a   3.75165577
_cell_length_b   3.88813849
_cell_length_c   26.30369794
_cell_angle_alpha   89.81040388
_cell_angle_beta   90.00000000
_cell_angle_gamma   90.00000000
_symmetry_Int_Tables_number   1
_chemical_formula_structural   MoO3
_chemical_formula_sum   'Mo2 O6'
_cell_volume   383.68881575
_cell_formula_units_Z   2
loop_
 _symmetry_equiv_pos_site_id
 _symmetry_equiv_pos_as_xyz
  1  'x, y, z'
loop_
 _atom_site_type_symbol
 _atom_site_label
 _atom_site_symmetry_multiplicity
 _atom_site_fract_x
 _atom_site_fract_y
 _atom_site_fract_z
 _atom_site_occupancy
  Mo  Mo1  1  0.250000  0.439890  0.556649  1
  Mo  Mo2  1  0.750000  0.560110  0.443351  1
  O  O3  1  0.250000  0.469035  0.621266  1
  O  O4  1  0.750000  0.530965  0.378734  1
  O  O5  1  0.250000  0.501590  0.464193  1
  O  O6  1  0.750000  0.498410  0.535807  1
  O  O7  1  0.250000  0.978087  0.547600  1
  O  O8  1  0.750000  0.021913  0.452400  1
