# generated using pymatgen
data_ZnW2O5
_symmetry_space_group_name_H-M   'P 1'
_cell_length_a   3.48645365
_cell_length_b   6.12736720
_cell_length_c   23.56121900
_cell_angle_alpha   90.00000000
_cell_angle_beta   90.00000000
_cell_angle_gamma   106.52887895
_symmetry_Int_Tables_number   1
_chemical_formula_structural   ZnW2O5
_chemical_formula_sum   'Zn1 W2 O5'
_cell_volume   482.53367055
_cell_formula_units_Z   1
loop_
 _symmetry_equiv_pos_site_id
 _symmetry_equiv_pos_as_xyz
  1  'x, y, z'
loop_
 _atom_site_type_symbol
 _atom_site_label
 _atom_site_symmetry_multiplicity
 _atom_site_fract_x
 _atom_site_fract_y
 _atom_site_fract_z
 _atom_site_occupancy
  Zn  Zn1  1  0.915660  0.831321  0.500000  1
  W  W2  1  0.184313  0.368627  0.446274  1
  W  W3  1  0.184313  0.368627  0.553726  1
  O  O4  1  0.334553  0.669105  0.500000  1
  O  O5  1  0.738948  0.477896  0.580100  1
  O  O6  1  0.738948  0.477896  0.419900  1
  O  O7  1  0.031578  0.063156  0.437794  1
  O  O8  1  0.031579  0.063156  0.562206  1
