# generated using pymatgen
data_FeO3
_symmetry_space_group_name_H-M   'P 1'
_cell_length_a   2.82277922
_cell_length_b   7.76368359
_cell_length_c   23.06535600
_cell_angle_alpha   90.00000000
_cell_angle_beta   90.00000000
_cell_angle_gamma   79.52574185
_symmetry_Int_Tables_number   1
_chemical_formula_structural   FeO3
_chemical_formula_sum   'Fe2 O6'
_cell_volume   497.05808477
_cell_formula_units_Z   2
loop_
 _symmetry_equiv_pos_site_id
 _symmetry_equiv_pos_as_xyz
  1  'x, y, z'
loop_
 _atom_site_type_symbol
 _atom_site_label
 _atom_site_symmetry_multiplicity
 _atom_site_fract_x
 _atom_site_fract_y
 _atom_site_fract_z
 _atom_site_occupancy
  Fe  Fe1  1  0.329434  0.341133  0.478593  1
  Fe  Fe2  1  0.670566  0.658867  0.521407  1
  O  O3  1  0.862940  0.274119  0.432747  1
  O  O4  1  0.196131  0.607738  0.467625  1
  O  O5  1  0.137060  0.725881  0.567253  1
  O  O6  1  0.532074  0.935853  0.483138  1
  O  O7  1  0.467926  0.064147  0.516862  1
  O  O8  1  0.803869  0.392262  0.532375  1
