# generated using pymatgen
data_TlF3
_symmetry_space_group_name_H-M   'P 1'
_cell_length_a   4.62451587
_cell_length_b   5.90137117
_cell_length_c   22.61303500
_cell_angle_alpha   90.00000000
_cell_angle_beta   90.00000000
_cell_angle_gamma   90.00000000
_symmetry_Int_Tables_number   1
_chemical_formula_structural   TlF3
_chemical_formula_sum   'Tl2 F6'
_cell_volume   617.13199063
_cell_formula_units_Z   2
loop_
 _symmetry_equiv_pos_site_id
 _symmetry_equiv_pos_as_xyz
  1  'x, y, z'
loop_
 _atom_site_type_symbol
 _atom_site_label
 _atom_site_symmetry_multiplicity
 _atom_site_fract_x
 _atom_site_fract_y
 _atom_site_fract_z
 _atom_site_occupancy
  Tl  Tl1  1  0.172718  0.623375  0.500000  1
  Tl  Tl2  1  0.827282  0.123375  0.500000  1
  F  F3  1  0.073414  0.340692  0.438355  1
  F  F4  1  0.926586  0.840692  0.561645  1
  F  F5  1  0.399222  0.968346  0.500000  1
  F  F6  1  0.600778  0.468346  0.500000  1
  F  F7  1  0.073414  0.340692  0.561645  1
  F  F8  1  0.926586  0.840692  0.438355  1
