# generated using pymatgen
data_Bi2Te2S
_symmetry_space_group_name_H-M   'P 1'
_cell_length_a   4.26442546
_cell_length_b   4.26504967
_cell_length_c   26.48717700
_cell_angle_alpha   90.00000000
_cell_angle_beta   90.00000000
_cell_angle_gamma   90.00000000
_symmetry_Int_Tables_number   1
_chemical_formula_structural   Bi2Te2S
_chemical_formula_sum   'Bi2 Te2 S1'
_cell_volume   481.74841507
_cell_formula_units_Z   1
loop_
 _symmetry_equiv_pos_site_id
 _symmetry_equiv_pos_as_xyz
  1  'x, y, z'
loop_
 _atom_site_type_symbol
 _atom_site_label
 _atom_site_symmetry_multiplicity
 _atom_site_fract_x
 _atom_site_fract_y
 _atom_site_fract_z
 _atom_site_occupancy
  Bi  Bi1  1  0.000000  0.998438  0.404581  1
  Bi  Bi2  1  -0.000000  0.001562  0.595419  1
  Te  Te3  1  0.500000  0.501558  0.633457  1
  Te  Te4  1  0.500000  0.498442  0.366543  1
  S  S5  1  -0.000000  -0.000000  0.500000  1
