# generated using pymatgen
data_NbBr2O
_symmetry_space_group_name_H-M   'P 1'
_cell_length_a   3.93170835
_cell_length_b   7.05128970
_cell_length_c   24.21419700
_cell_angle_alpha   90.00000000
_cell_angle_beta   90.00000000
_cell_angle_gamma   89.99931718
_symmetry_Int_Tables_number   1
_chemical_formula_structural   NbBr2O
_chemical_formula_sum   'Nb2 Br4 O2'
_cell_volume   671.30506536
_cell_formula_units_Z   2
loop_
 _symmetry_equiv_pos_site_id
 _symmetry_equiv_pos_as_xyz
  1  'x, y, z'
loop_
 _atom_site_type_symbol
 _atom_site_label
 _atom_site_symmetry_multiplicity
 _atom_site_fract_x
 _atom_site_fract_y
 _atom_site_fract_z
 _atom_site_occupancy
  Nb  Nb1  1  0.491351  0.494255  0.500039  1
  Nb  Nb2  1  0.491399  0.064234  0.499962  1
  Br  Br3  1  0.447905  0.779374  0.573817  1
  Br  Br4  1  0.454811  0.279007  0.587468  1
  Br  Br5  1  0.454495  0.279536  0.412539  1
  Br  Br6  1  0.448607  0.779087  0.426171  1
  O  O7  1  0.964096  0.500219  0.500115  1
  O  O8  1  0.964136  0.058299  0.499887  1
