# generated using pymatgen
data_ReBiO4
_symmetry_space_group_name_H-M   'P 1'
_cell_length_a   3.77217417
_cell_length_b   5.68814484
_cell_length_c   29.47438000
_cell_angle_alpha   90.00000000
_cell_angle_beta   90.00000000
_cell_angle_gamma   90.00000000
_symmetry_Int_Tables_number   1
_chemical_formula_structural   ReBiO4
_chemical_formula_sum   'Re2 Bi2 O8'
_cell_volume   632.42213474
_cell_formula_units_Z   2
loop_
 _symmetry_equiv_pos_site_id
 _symmetry_equiv_pos_as_xyz
  1  'x, y, z'
loop_
 _atom_site_type_symbol
 _atom_site_label
 _atom_site_symmetry_multiplicity
 _atom_site_fract_x
 _atom_site_fract_y
 _atom_site_fract_z
 _atom_site_occupancy
  Re  Re1  1  0.000000  0.250000  0.542011  1
  Re  Re2  1  -0.000000  0.750000  0.457989  1
  Bi  Bi3  1  -0.000000  0.250000  0.647388  1
  Bi  Bi4  1  -0.000000  0.750000  0.352612  1
  O  O5  1  0.000000  0.017859  0.592382  1
  O  O6  1  0.000000  0.982141  0.407618  1
  O  O7  1  0.000000  0.517859  0.407618  1
  O  O8  1  0.000000  0.482141  0.592382  1
  O  O9  1  0.000000  0.000000  0.500000  1
  O  O10  1  0.000000  0.500000  0.500000  1
  O  O11  1  0.500000  0.250000  0.542233  1
  O  O12  1  0.500000  0.750000  0.457767  1
