# generated using pymatgen
data_MoCl2
_symmetry_space_group_name_H-M   'P 1'
_cell_length_a   11.38145875
_cell_length_b   11.38829644
_cell_length_c   28.49977900
_cell_angle_alpha   90.00000000
_cell_angle_beta   90.00000000
_cell_angle_gamma   90.00000000
_symmetry_Int_Tables_number   1
_chemical_formula_structural   MoCl2
_chemical_formula_sum   'Mo12 Cl24'
_cell_volume   3694.01100068
_cell_formula_units_Z   12
loop_
 _symmetry_equiv_pos_site_id
 _symmetry_equiv_pos_as_xyz
  1  'x, y, z'
loop_
 _atom_site_type_symbol
 _atom_site_label
 _atom_site_symmetry_multiplicity
 _atom_site_fract_x
 _atom_site_fract_y
 _atom_site_fract_z
 _atom_site_occupancy
  Mo  Mo1  1  0.500000  0.500000  0.434248  1
  Mo  Mo2  1  0.352088  0.432180  0.500000  1
  Mo  Mo3  1  0.647912  0.567820  0.500000  1
  Mo  Mo4  1  0.147912  0.932180  0.500000  1
  Mo  Mo5  1  0.932148  0.852173  0.500000  1
  Mo  Mo6  1  0.000000  0.000000  0.565752  1
  Mo  Mo7  1  0.567852  0.352173  0.500000  1
  Mo  Mo8  1  0.067852  0.147827  0.500000  1
  Mo  Mo9  1  0.852088  0.067820  0.500000  1
  Mo  Mo10  1  -0.000000  0.000000  0.434248  1
  Mo  Mo11  1  0.432148  0.647827  0.500000  1
  Mo  Mo12  1  0.500000  0.500000  0.565752  1
  Cl  Cl13  1  0.076600  0.793651  0.438249  1
  Cl  Cl14  1  0.293512  0.576563  0.561743  1
  Cl  Cl15  1  0.206489  0.076563  0.561743  1
  Cl  Cl16  1  0.355962  0.855840  0.500000  1
  Cl  Cl17  1  0.076600  0.793651  0.561751  1
  Cl  Cl18  1  0.206488  0.076563  0.438257  1
  Cl  Cl19  1  0.923400  0.206349  0.438249  1
  Cl  Cl20  1  0.000000  0.000000  0.648640  1
  Cl  Cl21  1  0.644038  0.144160  0.500000  1
  Cl  Cl22  1  0.500000  0.500000  0.648640  1
  Cl  Cl23  1  0.855962  0.644160  0.500000  1
  Cl  Cl24  1  0.576600  0.706349  0.438249  1
  Cl  Cl25  1  0.706489  0.423437  0.438257  1
  Cl  Cl26  1  0.293512  0.576563  0.438257  1
  Cl  Cl27  1  0.793512  0.923437  0.561743  1
  Cl  Cl28  1  0.706489  0.423437  0.561743  1
  Cl  Cl29  1  0.423400  0.293651  0.438249  1
  Cl  Cl30  1  0.923400  0.206349  0.561751  1
  Cl  Cl31  1  0.000000  0.000000  0.351360  1
  Cl  Cl32  1  0.793512  0.923437  0.438257  1
  Cl  Cl33  1  0.500000  0.500000  0.351360  1
  Cl  Cl34  1  0.144038  0.355840  0.500000  1
  Cl  Cl35  1  0.423400  0.293651  0.561751  1
  Cl  Cl36  1  0.576600  0.706349  0.561751  1
