# generated using pymatgen
data_FeHO2
_symmetry_space_group_name_H-M   'P 1'
_cell_length_a   2.96866365
_cell_length_b   5.20260824
_cell_length_c   25.98931700
_cell_angle_alpha   90.00000000
_cell_angle_beta   90.00000000
_cell_angle_gamma   90.00000000
_symmetry_Int_Tables_number   1
_chemical_formula_structural   FeHO2
_chemical_formula_sum   'Fe2 H2 O4'
_cell_volume   401.39964642
_cell_formula_units_Z   2
loop_
 _symmetry_equiv_pos_site_id
 _symmetry_equiv_pos_as_xyz
  1  'x, y, z'
loop_
 _atom_site_type_symbol
 _atom_site_label
 _atom_site_symmetry_multiplicity
 _atom_site_fract_x
 _atom_site_fract_y
 _atom_site_fract_z
 _atom_site_occupancy
  Fe  Fe1  1  0.000000  0.504337  0.464805  1
  Fe  Fe2  1  0.500000  0.004337  0.535195  1
  H  H3  1  -0.000000  0.041803  0.618554  1
  H  H4  1  0.500000  0.541803  0.381446  1
  O  O5  1  -0.000000  0.194990  0.503244  1
  O  O6  1  0.500000  0.694990  0.496756  1
  O  O7  1  -0.000000  0.936928  0.587555  1
  O  O8  1  0.500000  0.436928  0.412445  1
