# generated using pymatgen
data_NiS2
_symmetry_space_group_name_H-M   'P 1'
_cell_length_a   3.33141100
_cell_length_b   3.33141114
_cell_length_c   22.37430708
_cell_angle_alpha   90.00000000
_cell_angle_beta   90.00000000
_cell_angle_gamma   59.99999147
_symmetry_Int_Tables_number   1
_chemical_formula_structural   NiS2
_chemical_formula_sum   'Ni1 S2'
_cell_volume   215.04860903
_cell_formula_units_Z   1
loop_
 _symmetry_equiv_pos_site_id
 _symmetry_equiv_pos_as_xyz
  1  'x, y, z'
loop_
 _atom_site_type_symbol
 _atom_site_label
 _atom_site_symmetry_multiplicity
 _atom_site_fract_x
 _atom_site_fract_y
 _atom_site_fract_z
 _atom_site_occupancy
  Ni  Ni1  1  -0.000000  0.000000  0.500000  1
  S  S2  1  0.666667  0.666667  0.552929  1
  S  S3  1  0.333333  0.333333  0.447071  1
