# generated using pymatgen
data_ThI4
_symmetry_space_group_name_H-M   'P 1'
_cell_length_a   8.13791679
_cell_length_b   14.38801957
_cell_length_c   24.54005800
_cell_angle_alpha   90.00000000
_cell_angle_beta   90.00000000
_cell_angle_gamma   90.00000000
_symmetry_Int_Tables_number   1
_chemical_formula_structural   ThI4
_chemical_formula_sum   'Th4 I16'
_cell_volume   2873.35872920
_cell_formula_units_Z   4
loop_
 _symmetry_equiv_pos_site_id
 _symmetry_equiv_pos_as_xyz
  1  'x, y, z'
loop_
 _atom_site_type_symbol
 _atom_site_label
 _atom_site_symmetry_multiplicity
 _atom_site_fract_x
 _atom_site_fract_y
 _atom_site_fract_z
 _atom_site_occupancy
  Th  Th1  1  0.514391  0.318296  0.501813  1
  Th  Th2  1  0.014391  0.181704  0.498187  1
  Th  Th3  1  0.485609  0.681704  0.498187  1
  Th  Th4  1  0.985609  0.818296  0.501813  1
  I  I5  1  0.861869  0.381161  0.544293  1
  I  I6  1  0.361869  0.118839  0.455707  1
  I  I7  1  0.138131  0.618839  0.455707  1
  I  I8  1  0.638131  0.881161  0.544293  1
  I  I9  1  0.088600  0.996162  0.572867  1
  I  I10  1  0.588600  0.503838  0.427133  1
  I  I11  1  0.911400  0.003838  0.427133  1
  I  I12  1  0.411400  0.496162  0.572867  1
  I  I13  1  0.747179  0.750236  0.406820  1
  I  I14  1  0.247179  0.749764  0.593180  1
  I  I15  1  0.252821  0.249764  0.593180  1
  I  I16  1  0.752821  0.250236  0.406820  1
  I  I17  1  0.310036  0.854161  0.434592  1
  I  I18  1  0.810036  0.645839  0.565408  1
  I  I19  1  0.689964  0.145839  0.565408  1
  I  I20  1  0.189964  0.354161  0.434592  1
