# generated using pymatgen
data_Mg3(HO2)2
_symmetry_space_group_name_H-M   'P 1'
_cell_length_a   3.04942070
_cell_length_b   3.04942084
_cell_length_c   28.96129200
_cell_angle_alpha   90.00000000
_cell_angle_beta   90.00000000
_cell_angle_gamma   120.00000913
_symmetry_Int_Tables_number   1
_chemical_formula_structural   Mg3(HO2)2
_chemical_formula_sum   'Mg3 H2 O4'
_cell_volume   233.22936611
_cell_formula_units_Z   1
loop_
 _symmetry_equiv_pos_site_id
 _symmetry_equiv_pos_as_xyz
  1  'x, y, z'
loop_
 _atom_site_type_symbol
 _atom_site_label
 _atom_site_symmetry_multiplicity
 _atom_site_fract_x
 _atom_site_fract_y
 _atom_site_fract_z
 _atom_site_occupancy
  Mg  Mg1  1  -0.000000  -0.000000  0.499987  1
  Mg  Mg2  1  0.666667  0.333333  0.415314  1
  Mg  Mg3  1  0.333333  0.666667  0.584678  1
  H  H4  1  -0.000000  -0.000000  0.654586  1
  H  H5  1  -0.000000  -0.000000  0.345435  1
  O  O6  1  -0.000000  -0.000000  0.378885  1
  O  O7  1  -0.000000  -0.000000  0.621141  1
  O  O8  1  0.666667  0.333333  0.542166  1
  O  O9  1  0.333333  0.666667  0.457810  1
