# generated using pymatgen
data_Nb2SiTe4
_symmetry_space_group_name_H-M   'P 1'
_cell_length_a   3.71038742
_cell_length_b   6.69566667
_cell_length_c   25.31839200
_cell_angle_alpha   90.00000000
_cell_angle_beta   90.00000000
_cell_angle_gamma   89.98518974
_symmetry_Int_Tables_number   1
_chemical_formula_structural   Nb2SiTe4
_chemical_formula_sum   'Nb2 Si1 Te4'
_cell_volume   628.99789062
_cell_formula_units_Z   1
loop_
 _symmetry_equiv_pos_site_id
 _symmetry_equiv_pos_as_xyz
  1  'x, y, z'
loop_
 _atom_site_type_symbol
 _atom_site_label
 _atom_site_symmetry_multiplicity
 _atom_site_fract_x
 _atom_site_fract_y
 _atom_site_fract_z
 _atom_site_occupancy
  Nb  Nb1  1  0.531189  0.027761  0.479365  1
  Nb  Nb2  1  0.031709  0.378393  0.486014  1
  Si  Si3  1  0.531434  0.920302  0.602858  1
  Te  Te4  1  0.531685  0.305616  0.568383  1
  Te  Te5  1  0.031118  0.115221  0.400265  1
  Te  Te6  1  0.531327  0.625687  0.425463  1
  Te  Te7  1  0.031295  0.773886  0.537652  1
