# generated using pymatgen
data_LiIn(IO3)4
_symmetry_space_group_name_H-M   'P 1'
_cell_length_a   4.80826251
_cell_length_b   6.49304018
_cell_length_c   27.11447999
_cell_angle_alpha   89.49637463
_cell_angle_beta   91.48463756
_cell_angle_gamma   89.49814888
_symmetry_Int_Tables_number   1
_chemical_formula_structural   LiIn(IO3)4
_chemical_formula_sum   'Li1 In1 I4 O12'
_cell_volume   846.16956218
_cell_formula_units_Z   1
loop_
 _symmetry_equiv_pos_site_id
 _symmetry_equiv_pos_as_xyz
  1  'x, y, z'
loop_
 _atom_site_type_symbol
 _atom_site_label
 _atom_site_symmetry_multiplicity
 _atom_site_fract_x
 _atom_site_fract_y
 _atom_site_fract_z
 _atom_site_occupancy
  Li  Li1  1  0.500000  0.000000  0.500000  1
  In  In2  1  0.500000  0.500000  0.500000  1
  I  I3  1  0.516838  0.768431  0.390934  1
  I  I4  1  0.996960  0.249858  0.416159  1
  I  I5  1  0.003040  0.750142  0.583841  1
  I  I6  1  0.483162  0.231569  0.609066  1
  O  O7  1  0.732759  0.562637  0.367469  1
  O  O8  1  0.711781  0.996249  0.372211  1
  O  O9  1  0.215962  0.471127  0.437896  1
  O  O10  1  0.216057  0.040475  0.440204  1
  O  O11  1  0.642541  0.758254  0.457165  1
  O  O12  1  0.752034  0.253705  0.467214  1
  O  O13  1  0.247966  0.746295  0.532786  1
  O  O14  1  0.357459  0.241746  0.542835  1
  O  O15  1  0.783944  0.959525  0.559796  1
  O  O16  1  0.784038  0.528873  0.562104  1
  O  O17  1  0.288219  0.003751  0.627789  1
  O  O18  1  0.267241  0.437363  0.632531  1
