# generated using pymatgen
data_CdSb2Se3Br2
_symmetry_space_group_name_H-M   'P 1'
_cell_length_a   4.04312245
_cell_length_b   18.63673089
_cell_length_c   24.71704200
_cell_angle_alpha   90.00000000
_cell_angle_beta   90.00000000
_cell_angle_gamma   90.00000000
_symmetry_Int_Tables_number   1
_chemical_formula_structural   CdSb2Se3Br2
_chemical_formula_sum   'Cd2 Sb4 Se6 Br4'
_cell_volume   1862.44357555
_cell_formula_units_Z   2
loop_
 _symmetry_equiv_pos_site_id
 _symmetry_equiv_pos_as_xyz
  1  'x, y, z'
loop_
 _atom_site_type_symbol
 _atom_site_label
 _atom_site_symmetry_multiplicity
 _atom_site_fract_x
 _atom_site_fract_y
 _atom_site_fract_z
 _atom_site_occupancy
  Cd  Cd1  1  0.250000  0.590658  0.522809  1
  Cd  Cd2  1  0.750000  0.409342  0.477191  1
  Sb  Sb3  1  0.750000  0.784253  0.502935  1
  Sb  Sb4  1  0.250000  0.215748  0.497065  1
  Sb  Sb5  1  0.250000  0.960102  0.434627  1
  Sb  Sb6  1  0.750000  0.039898  0.565373  1
  Se  Se7  1  0.250000  0.710022  0.456235  1
  Se  Se8  1  0.250000  0.139865  0.589909  1
  Se  Se9  1  0.750000  0.289978  0.543765  1
  Se  Se10  1  0.250000  0.922261  0.535105  1
  Se  Se11  1  0.750000  0.860135  0.410091  1
  Se  Se12  1  0.750000  0.077739  0.464895  1
  Br  Br13  1  0.250000  0.351505  0.412580  1
  Br  Br14  1  0.750000  0.648495  0.587420  1
  Br  Br15  1  0.250000  0.454370  0.557897  1
  Br  Br16  1  0.750000  0.545630  0.442103  1
