# generated using pymatgen
data_Bi3O2F5
_symmetry_space_group_name_H-M   'P 1'
_cell_length_a   5.60828970
_cell_length_b   5.92213649
_cell_length_c   28.27066100
_cell_angle_alpha   90.00000000
_cell_angle_beta   90.00000000
_cell_angle_gamma   90.00000000
_symmetry_Int_Tables_number   1
_chemical_formula_structural   Bi3O2F5
_chemical_formula_sum   'Bi6 O4 F10'
_cell_volume   938.95507745
_cell_formula_units_Z   2
loop_
 _symmetry_equiv_pos_site_id
 _symmetry_equiv_pos_as_xyz
  1  'x, y, z'
loop_
 _atom_site_type_symbol
 _atom_site_label
 _atom_site_symmetry_multiplicity
 _atom_site_fract_x
 _atom_site_fract_y
 _atom_site_fract_z
 _atom_site_occupancy
  Bi  Bi1  1  0.825978  0.201181  0.597056  1
  Bi  Bi2  1  0.825978  0.201181  0.402944  1
  Bi  Bi3  1  0.762640  0.776951  0.500000  1
  Bi  Bi4  1  0.325978  0.798819  0.402944  1
  Bi  Bi5  1  0.325978  0.798819  0.597056  1
  Bi  Bi6  1  0.262640  0.223049  0.500000  1
  O  O7  1  0.540133  0.023257  0.449670  1
  O  O8  1  0.540133  0.023257  0.550330  1
  O  O9  1  0.040133  0.976743  0.550330  1
  O  O10  1  0.040133  0.976743  0.449670  1
  F  F11  1  0.851955  0.346483  0.500000  1
  F  F12  1  0.678238  0.589679  0.422388  1
  F  F13  1  0.678238  0.589679  0.577612  1
  F  F14  1  0.612664  0.956949  0.644071  1
  F  F15  1  0.612664  0.956949  0.355929  1
  F  F16  1  0.351955  0.653517  0.500000  1
  F  F17  1  0.178238  0.410321  0.577612  1
  F  F18  1  0.178238  0.410321  0.422388  1
  F  F19  1  0.112664  0.043051  0.355929  1
  F  F20  1  0.112664  0.043051  0.644071  1
