# generated using pymatgen
data_Mn3(SeO3)4
_symmetry_space_group_name_H-M   'P 1'
_cell_length_a   8.27008948
_cell_length_b   10.12700213
_cell_length_c   26.20094900
_cell_angle_alpha   89.21710510
_cell_angle_beta   90.33582638
_cell_angle_gamma   106.26245220
_symmetry_Int_Tables_number   1
_chemical_formula_structural   Mn3(SeO3)4
_chemical_formula_sum   'Mn6 Se8 O24'
_cell_volume   2106.36134276
_cell_formula_units_Z   2
loop_
 _symmetry_equiv_pos_site_id
 _symmetry_equiv_pos_as_xyz
  1  'x, y, z'
loop_
 _atom_site_type_symbol
 _atom_site_label
 _atom_site_symmetry_multiplicity
 _atom_site_fract_x
 _atom_site_fract_y
 _atom_site_fract_z
 _atom_site_occupancy
  Mn  Mn1  1  0.000000  0.000000  0.500000  1
  Mn  Mn2  1  0.000000  0.500000  0.500000  1
  Mn  Mn3  1  0.300340  0.787736  0.484524  1
  Mn  Mn4  1  0.650784  0.682891  0.484865  1
  Mn  Mn5  1  0.349216  0.317109  0.515135  1
  Mn  Mn6  1  0.699660  0.212264  0.515476  1
  Se  Se7  1  0.312676  0.500703  0.422917  1
  Se  Se8  1  0.349810  0.087510  0.426597  1
  Se  Se9  1  0.855634  0.225666  0.418581  1
  Se  Se10  1  0.938276  0.742780  0.411201  1
  Se  Se11  1  0.061724  0.257220  0.588799  1
  Se  Se12  1  0.144366  0.774334  0.581419  1
  Se  Se13  1  0.650190  0.912490  0.573403  1
  Se  Se14  1  0.687324  0.499297  0.577083  1
  O  O15  1  0.167512  0.422560  0.472354  1
  O  O16  1  0.440962  0.149653  0.484021  1
  O  O17  1  0.137675  0.075368  0.439671  1
  O  O18  1  0.411180  0.661288  0.449014  1
  O  O19  1  0.349774  0.916789  0.427987  1
  O  O20  1  0.449320  0.414285  0.441692  1
  O  O21  1  0.882743  0.834512  0.462730  1
  O  O22  1  0.812496  0.107111  0.473190  1
  O  O23  1  0.800357  0.349577  0.461126  1
  O  O24  1  0.747983  0.628060  0.410898  1
  O  O25  1  0.065683  0.654308  0.443196  1
  O  O26  1  0.310596  0.829039  0.617726  1
  O  O27  1  0.689404  0.170961  0.382274  1
  O  O28  1  0.934317  0.345692  0.556804  1
  O  O29  1  0.252017  0.371940  0.589102  1
  O  O30  1  0.199643  0.650423  0.538874  1
  O  O31  1  0.187504  0.892889  0.526810  1
  O  O32  1  0.117257  0.165488  0.537270  1
  O  O33  1  0.550680  0.585715  0.558308  1
  O  O34  1  0.650226  0.083211  0.572013  1
  O  O35  1  0.588820  0.338712  0.550986  1
  O  O36  1  0.862325  0.924632  0.560329  1
  O  O37  1  0.559038  0.850347  0.515979  1
  O  O38  1  0.832488  0.577440  0.527646  1
