# generated using pymatgen
data_Hg3AsS4Br
_symmetry_space_group_name_H-M   'P 1'
_cell_length_a   7.44739946
_cell_length_b   7.44739896
_cell_length_c   23.20422000
_cell_angle_alpha   90.00000000
_cell_angle_beta   90.00000000
_cell_angle_gamma   120.00000221
_symmetry_Int_Tables_number   1
_chemical_formula_structural   Hg3AsS4Br
_chemical_formula_sum   'Hg3 As1 S4 Br1'
_cell_volume   1114.56875777
_cell_formula_units_Z   1
loop_
 _symmetry_equiv_pos_site_id
 _symmetry_equiv_pos_as_xyz
  1  'x, y, z'
loop_
 _atom_site_type_symbol
 _atom_site_label
 _atom_site_symmetry_multiplicity
 _atom_site_fract_x
 _atom_site_fract_y
 _atom_site_fract_z
 _atom_site_occupancy
  Hg  Hg1  1  0.498719  0.997437  0.503454  1
  Hg  Hg2  1  0.498719  0.501281  0.503454  1
  Hg  Hg3  1  0.002563  0.501281  0.503454  1
  As  As4  1  -0.000000  -0.000000  0.499267  1
  S  S5  1  0.304696  0.152348  0.447731  1
  S  S6  1  0.847652  0.152348  0.447731  1
  S  S7  1  0.847652  0.695304  0.447731  1
  S  S8  1  0.333333  0.666667  0.558507  1
  Br  Br9  1  0.666667  0.333333  0.588673  1
