# generated using pymatgen
data_Ge3(Te3As)2
_symmetry_space_group_name_H-M   'P 1'
_cell_length_a   4.18160185
_cell_length_b   4.18160172
_cell_length_c   37.35595200
_cell_angle_alpha   90.00000000
_cell_angle_beta   90.00000000
_cell_angle_gamma   60.00000683
_symmetry_Int_Tables_number   1
_chemical_formula_structural   Ge3(Te3As)2
_chemical_formula_sum   'Ge3 Te6 As2'
_cell_volume   565.68650137
_cell_formula_units_Z   1
loop_
 _symmetry_equiv_pos_site_id
 _symmetry_equiv_pos_as_xyz
  1  'x, y, z'
loop_
 _atom_site_type_symbol
 _atom_site_label
 _atom_site_symmetry_multiplicity
 _atom_site_fract_x
 _atom_site_fract_y
 _atom_site_fract_z
 _atom_site_occupancy
  Ge  Ge1  1  0.000000  -0.000000  0.500000  1
  Ge  Ge2  1  0.333333  0.333333  0.595465  1
  Ge  Ge3  1  0.666667  0.666667  0.404535  1
  Te  Te4  1  0.000000  -0.000000  0.358265  1
  Te  Te5  1  -0.000000  -0.000000  0.641735  1
  Te  Te6  1  0.333333  0.333333  0.733012  1
  Te  Te7  1  0.666667  0.666667  0.266988  1
  Te  Te8  1  0.333333  0.333333  0.452757  1
  Te  Te9  1  0.666667  0.666667  0.547243  1
  As  As10  1  0.333333  0.333333  0.307947  1
  As  As11  1  0.666667  0.666667  0.692053  1
