# generated using pymatgen
data_WO2
_symmetry_space_group_name_H-M   'P 1'
_cell_length_a   5.82738701
_cell_length_b   6.31452553
_cell_length_c   21.88890700
_cell_angle_alpha   90.00000000
_cell_angle_beta   90.00000000
_cell_angle_gamma   90.00034921
_symmetry_Int_Tables_number   1
_chemical_formula_structural   WO2
_chemical_formula_sum   'W4 O8'
_cell_volume   805.45013989
_cell_formula_units_Z   4
loop_
 _symmetry_equiv_pos_site_id
 _symmetry_equiv_pos_as_xyz
  1  'x, y, z'
loop_
 _atom_site_type_symbol
 _atom_site_label
 _atom_site_symmetry_multiplicity
 _atom_site_fract_x
 _atom_site_fract_y
 _atom_site_fract_z
 _atom_site_occupancy
  W  W1  1  0.250058  0.375031  0.499939  1
  W  W2  1  0.250055  0.875045  0.499845  1
  W  W3  1  0.749942  0.624969  0.500061  1
  W  W4  1  0.749945  0.124955  0.500155  1
  O  O5  1  0.583974  0.375055  0.543141  1
  O  O6  1  0.915481  0.875047  0.456997  1
  O  O7  1  0.915623  0.374873  0.457045  1
  O  O8  1  0.583844  0.874843  0.543071  1
  O  O9  1  0.416026  0.624945  0.456859  1
  O  O10  1  0.084519  0.124953  0.543003  1
  O  O11  1  0.084377  0.625127  0.542955  1
  O  O12  1  0.416156  0.125157  0.456929  1
