# generated using pymatgen
data_HgPSe3
_symmetry_space_group_name_H-M   'P 1'
_cell_length_a   6.64476990
_cell_length_b   6.61617967
_cell_length_c   24.42488500
_cell_angle_alpha   90.00000000
_cell_angle_beta   90.00000000
_cell_angle_gamma   60.97802247
_symmetry_Int_Tables_number   1
_chemical_formula_structural   HgPSe3
_chemical_formula_sum   'Hg2 P2 Se6'
_cell_volume   938.95902559
_cell_formula_units_Z   2
loop_
 _symmetry_equiv_pos_site_id
 _symmetry_equiv_pos_as_xyz
  1  'x, y, z'
loop_
 _atom_site_type_symbol
 _atom_site_label
 _atom_site_symmetry_multiplicity
 _atom_site_fract_x
 _atom_site_fract_y
 _atom_site_fract_z
 _atom_site_occupancy
  Hg  Hg1  1  0.709332  0.692367  0.462592  1
  Hg  Hg2  1  0.290668  0.307633  0.537408  1
  P  P3  1  0.001367  0.035737  0.452989  1
  P  P4  1  0.998633  0.964263  0.547011  1
  Se  Se5  1  0.708598  0.890497  0.562943  1
  Se  Se6  1  0.291402  0.109503  0.437057  1
  Se  Se7  1  0.337475  0.663508  0.568662  1
  Se  Se8  1  0.662525  0.336492  0.431338  1
  Se  Se9  1  0.946028  0.274900  0.590692  1
  Se  Se10  1  0.053972  0.725100  0.409308  1
