# generated using pymatgen
data_Ge3Sb2O9
_symmetry_space_group_name_H-M   'P 1'
_cell_length_a   7.23134142
_cell_length_b   7.23134112
_cell_length_c   25.09304200
_cell_angle_alpha   90.00000000
_cell_angle_beta   90.00000000
_cell_angle_gamma   119.99999671
_symmetry_Int_Tables_number   1
_chemical_formula_structural   Ge3Sb2O9
_chemical_formula_sum   'Ge3 Sb2 O9'
_cell_volume   1136.37501120
_cell_formula_units_Z   1
loop_
 _symmetry_equiv_pos_site_id
 _symmetry_equiv_pos_as_xyz
  1  'x, y, z'
loop_
 _atom_site_type_symbol
 _atom_site_label
 _atom_site_symmetry_multiplicity
 _atom_site_fract_x
 _atom_site_fract_y
 _atom_site_fract_z
 _atom_site_occupancy
  Ge  Ge1  1  0.051442  0.598048  0.500000  1
  Ge  Ge2  1  0.546607  0.948558  0.500000  1
  Ge  Ge3  1  0.401952  0.453393  0.500000  1
  Sb  Sb4  1  0.666667  0.333333  0.597061  1
  Sb  Sb5  1  0.666667  0.333333  0.402939  1
  O  O6  1  0.429764  0.334949  0.441293  1
  O  O7  1  0.665051  0.094814  0.441293  1
  O  O8  1  0.905186  0.570236  0.441293  1
  O  O9  1  0.905186  0.570236  0.558707  1
  O  O10  1  0.665051  0.094814  0.558707  1
  O  O11  1  0.429764  0.334949  0.558707  1
  O  O12  1  0.136477  0.405717  0.500000  1
  O  O13  1  0.594283  0.730760  0.500000  1
  O  O14  1  0.269240  0.863523  0.500000  1
