# generated using pymatgen
data_Ga2Fe2S5
_symmetry_space_group_name_H-M   'P 1'
_cell_length_a   3.61233957
_cell_length_b   3.61315729
_cell_length_c   31.91102500
_cell_angle_alpha   90.00000000
_cell_angle_beta   90.00000000
_cell_angle_gamma   119.99268817
_symmetry_Int_Tables_number   1
_chemical_formula_structural   Ga2Fe2S5
_chemical_formula_sum   'Ga2 Fe2 S5'
_cell_volume   360.72713790
_cell_formula_units_Z   1
loop_
 _symmetry_equiv_pos_site_id
 _symmetry_equiv_pos_as_xyz
  1  'x, y, z'
loop_
 _atom_site_type_symbol
 _atom_site_label
 _atom_site_symmetry_multiplicity
 _atom_site_fract_x
 _atom_site_fract_y
 _atom_site_fract_z
 _atom_site_occupancy
  Ga  Ga1  1  0.833504  0.667294  0.346505  1
  Ga  Ga2  1  0.166496  0.332706  0.653495  1
  Fe  Fe3  1  0.833137  0.665942  0.542830  1
  Fe  Fe4  1  0.166863  0.334058  0.457170  1
  S  S5  1  0.500000  -0.000000  0.500000  1
  S  S6  1  0.833872  0.666938  0.416486  1
  S  S7  1  0.166128  0.333062  0.583514  1
  S  S8  1  0.833193  0.666223  0.686818  1
  S  S9  1  0.166807  0.333777  0.313182  1
