# generated using pymatgen
data_HfGe2
_symmetry_space_group_name_H-M   'P 1'
_cell_length_a   3.73494591
_cell_length_b   3.76199478
_cell_length_c   25.65507100
_cell_angle_alpha   90.00000000
_cell_angle_beta   90.00000000
_cell_angle_gamma   90.00000000
_symmetry_Int_Tables_number   1
_chemical_formula_structural   HfGe2
_chemical_formula_sum   'Hf2 Ge4'
_cell_volume   360.47547783
_cell_formula_units_Z   2
loop_
 _symmetry_equiv_pos_site_id
 _symmetry_equiv_pos_as_xyz
  1  'x, y, z'
loop_
 _atom_site_type_symbol
 _atom_site_label
 _atom_site_symmetry_multiplicity
 _atom_site_fract_x
 _atom_site_fract_y
 _atom_site_fract_z
 _atom_site_occupancy
  Hf  Hf1  1  0.500000  0.500000  0.585257  1
  Hf  Hf2  1  -0.000000  -0.000000  0.414743  1
  Ge  Ge3  1  0.500000  0.500000  0.390085  1
  Ge  Ge4  1  -0.000000  0.000000  0.609915  1
  Ge  Ge5  1  0.000000  0.500000  0.499927  1
  Ge  Ge6  1  0.500000  -0.000000  0.500073  1
