# generated using pymatgen
data_CrHO2
_symmetry_space_group_name_H-M   'P 1'
_cell_length_a   5.30712292
_cell_length_b   6.08832589
_cell_length_c   24.17787400
_cell_angle_alpha   90.00000000
_cell_angle_beta   90.00000000
_cell_angle_gamma   90.00000000
_symmetry_Int_Tables_number   1
_chemical_formula_structural   CrHO2
_chemical_formula_sum   'Cr4 H4 O8'
_cell_volume   781.22322767
_cell_formula_units_Z   4
loop_
 _symmetry_equiv_pos_site_id
 _symmetry_equiv_pos_as_xyz
  1  'x, y, z'
loop_
 _atom_site_type_symbol
 _atom_site_label
 _atom_site_symmetry_multiplicity
 _atom_site_fract_x
 _atom_site_fract_y
 _atom_site_fract_z
 _atom_site_occupancy
  Cr  Cr1  1  0.264483  0.374481  0.501284  1
  Cr  Cr2  1  0.764483  0.125519  0.501284  1
  Cr  Cr3  1  0.235517  0.874481  0.498716  1
  Cr  Cr4  1  0.735517  0.625519  0.498716  1
  H  H5  1  0.421048  0.118973  0.416212  1
  H  H6  1  0.578952  0.881027  0.583788  1
  H  H7  1  0.078952  0.618973  0.583788  1
  H  H8  1  0.921048  0.381027  0.416212  1
  O  O9  1  0.588687  0.373168  0.539373  1
  O  O10  1  0.419572  0.121619  0.456456  1
  O  O11  1  0.088687  0.126832  0.539373  1
  O  O12  1  0.911313  0.873168  0.460627  1
  O  O13  1  0.580428  0.878381  0.543544  1
  O  O14  1  0.411313  0.626832  0.460627  1
  O  O15  1  0.080428  0.621619  0.543544  1
  O  O16  1  0.919572  0.378381  0.456456  1
