# generated using pymatgen
data_BiPO4
_symmetry_space_group_name_H-M   'P 1'
_cell_length_a   6.59869389
_cell_length_b   10.96341746
_cell_length_c   22.99849401
_cell_angle_alpha   96.09162772
_cell_angle_beta   90.00000000
_cell_angle_gamma   90.00000000
_symmetry_Int_Tables_number   1
_chemical_formula_structural   BiPO4
_chemical_formula_sum   'Bi4 P4 O16'
_cell_volume   1654.41371492
_cell_formula_units_Z   4
loop_
 _symmetry_equiv_pos_site_id
 _symmetry_equiv_pos_as_xyz
  1  'x, y, z'
loop_
 _atom_site_type_symbol
 _atom_site_label
 _atom_site_symmetry_multiplicity
 _atom_site_fract_x
 _atom_site_fract_y
 _atom_site_fract_z
 _atom_site_occupancy
  Bi  Bi1  1  0.402039  0.815277  0.555671  1
  Bi  Bi2  1  0.902039  0.527258  0.444329  1
  Bi  Bi3  1  0.597961  0.027258  0.444329  1
  Bi  Bi4  1  0.097961  0.315277  0.555671  1
  P  P5  1  0.380811  0.638572  0.464658  1
  P  P6  1  0.880811  0.703963  0.535342  1
  P  P7  1  0.619189  0.203963  0.535342  1
  P  P8  1  0.119189  0.138572  0.464658  1
  O  O9  1  0.340614  0.532257  0.509841  1
  O  O10  1  0.840614  0.810278  0.490159  1
  O  O11  1  0.659386  0.310278  0.490159  1
  O  O12  1  0.159386  0.032257  0.509841  1
  O  O13  1  0.305733  0.936725  0.483782  1
  O  O14  1  0.805733  0.405810  0.516218  1
  O  O15  1  0.694267  0.905810  0.516218  1
  O  O16  1  0.194267  0.436725  0.483782  1
  O  O17  1  0.926573  0.110549  0.429161  1
  O  O18  1  0.426573  0.231986  0.570839  1
  O  O19  1  0.073427  0.731986  0.570839  1
  O  O20  1  0.573427  0.610549  0.429161  1
  O  O21  1  0.311868  0.146023  0.428010  1
  O  O22  1  0.811868  0.196512  0.571990  1
  O  O23  1  0.688132  0.696512  0.571990  1
  O  O24  1  0.188132  0.646023  0.428010  1
