# generated using pymatgen
data_V2O5
_symmetry_space_group_name_H-M   'P 1'
_cell_length_a   3.60492475
_cell_length_b   6.34137617
_cell_length_c   27.12244000
_cell_angle_alpha   90.00000000
_cell_angle_beta   90.00000000
_cell_angle_gamma   90.00000000
_symmetry_Int_Tables_number   1
_chemical_formula_structural   V2O5
_chemical_formula_sum   'V4 O10'
_cell_volume   620.02396633
_cell_formula_units_Z   2
loop_
 _symmetry_equiv_pos_site_id
 _symmetry_equiv_pos_as_xyz
  1  'x, y, z'
loop_
 _atom_site_type_symbol
 _atom_site_label
 _atom_site_symmetry_multiplicity
 _atom_site_fract_x
 _atom_site_fract_y
 _atom_site_fract_z
 _atom_site_occupancy
  V  V1  1  0.250000  0.237186  0.574067  1
  V  V2  1  0.750000  0.762814  0.425933  1
  V  V3  1  0.250000  0.691834  0.525879  1
  V  V4  1  0.750000  0.308166  0.474121  1
  O  O5  1  0.750000  0.239707  0.551035  1
  O  O6  1  0.250000  0.760293  0.448965  1
  O  O7  1  0.250000  0.536396  0.579235  1
  O  O8  1  0.750000  0.463604  0.420765  1
  O  O9  1  0.250000  0.939797  0.547529  1
  O  O10  1  0.750000  0.060203  0.452471  1
  O  O11  1  0.750000  0.643906  0.508286  1
  O  O12  1  0.250000  0.178391  0.631405  1
  O  O13  1  0.750000  0.821609  0.368595  1
  O  O14  1  0.250000  0.356094  0.491714  1
