# generated using pymatgen
data_MgGeO3
_symmetry_space_group_name_H-M   'P 1'
_cell_length_a   3.00769624
_cell_length_b   7.89368778
_cell_length_c   24.53452800
_cell_angle_alpha   90.00000000
_cell_angle_beta   90.00000000
_cell_angle_gamma   90.00000000
_symmetry_Int_Tables_number   1
_chemical_formula_structural   MgGeO3
_chemical_formula_sum   'Mg2 Ge2 O6'
_cell_volume   582.49422625
_cell_formula_units_Z   2
loop_
 _symmetry_equiv_pos_site_id
 _symmetry_equiv_pos_as_xyz
  1  'x, y, z'
loop_
 _atom_site_type_symbol
 _atom_site_label
 _atom_site_symmetry_multiplicity
 _atom_site_fract_x
 _atom_site_fract_y
 _atom_site_fract_z
 _atom_site_occupancy
  Mg  Mg1  1  -0.000000  0.750000  0.440415  1
  Mg  Mg2  1  -0.000000  0.250000  0.559585  1
  Ge  Ge3  1  0.500000  0.500000  0.500000  1
  Ge  Ge4  1  0.500000  0.000000  0.500000  1
  O  O5  1  0.000000  0.998883  0.448165  1
  O  O6  1  0.000000  0.001117  0.551835  1
  O  O7  1  0.000000  0.498883  0.551835  1
  O  O8  1  0.000000  0.501117  0.448165  1
  O  O9  1  0.500000  0.250000  0.510919  1
  O  O10  1  0.500000  0.750000  0.489081  1
