# generated using pymatgen
data_MnSbSe2I
_symmetry_space_group_name_H-M   'P 1'
_cell_length_a   3.92314356
_cell_length_b   10.52934485
_cell_length_c   25.58443400
_cell_angle_alpha   90.00000000
_cell_angle_beta   90.00000000
_cell_angle_gamma   90.00000000
_symmetry_Int_Tables_number   1
_chemical_formula_structural   MnSbSe2I
_chemical_formula_sum   'Mn2 Sb2 Se4 I2'
_cell_volume   1056.84516247
_cell_formula_units_Z   2
loop_
 _symmetry_equiv_pos_site_id
 _symmetry_equiv_pos_as_xyz
  1  'x, y, z'
loop_
 _atom_site_type_symbol
 _atom_site_label
 _atom_site_symmetry_multiplicity
 _atom_site_fract_x
 _atom_site_fract_y
 _atom_site_fract_z
 _atom_site_occupancy
  Mn  Mn1  1  -0.000000  0.000000  0.500000  1
  Mn  Mn2  1  -0.000000  0.500000  0.500000  1
  Sb  Sb3  1  0.500000  0.315574  0.600001  1
  Sb  Sb4  1  0.500000  0.684426  0.399999  1
  Se  Se5  1  -0.000000  0.248089  0.532825  1
  Se  Se6  1  0.500000  0.452881  0.428914  1
  Se  Se7  1  -0.000000  0.751911  0.467175  1
  Se  Se8  1  0.500000  0.547119  0.571086  1
  I  I9  1  0.500000  0.921156  0.572841  1
  I  I10  1  0.500000  0.078844  0.427159  1
