# generated using pymatgen
data_Ba(SbO2)4
_symmetry_space_group_name_H-M   'P 1'
_cell_length_a   6.27545542
_cell_length_b   6.27545607
_cell_length_c   23.95236636
_cell_angle_alpha   90.00000000
_cell_angle_beta   90.00000000
_cell_angle_gamma   119.99999655
_symmetry_Int_Tables_number   1
_chemical_formula_structural   Ba(SbO2)4
_chemical_formula_sum   'Ba1 Sb4 O8'
_cell_volume   816.90135298
_cell_formula_units_Z   1
loop_
 _symmetry_equiv_pos_site_id
 _symmetry_equiv_pos_as_xyz
  1  'x, y, z'
loop_
 _atom_site_type_symbol
 _atom_site_label
 _atom_site_symmetry_multiplicity
 _atom_site_fract_x
 _atom_site_fract_y
 _atom_site_fract_z
 _atom_site_occupancy
  Ba  Ba1  1  0.000000  0.000000  0.500000  1
  Sb  Sb2  1  0.333333  0.666667  0.582276  1
  Sb  Sb3  1  0.666667  0.333333  0.582276  1
  Sb  Sb4  1  0.333333  0.666667  0.417724  1
  Sb  Sb5  1  0.666667  0.333333  0.417724  1
  O  O6  1  0.000000  0.336580  0.580358  1
  O  O7  1  0.336580  0.000000  0.580358  1
  O  O8  1  0.663420  0.663420  0.580358  1
  O  O9  1  -0.000000  0.663420  0.419642  1
  O  O10  1  0.336580  0.336580  0.419642  1
  O  O11  1  0.663420  0.000000  0.419642  1
  O  O12  1  0.333333  0.666667  0.500000  1
  O  O13  1  0.666667  0.333333  0.500000  1
