# generated using pymatgen
data_FeAgS2
_symmetry_space_group_name_H-M   'P 1'
_cell_length_a   3.13823226
_cell_length_b   3.13823375
_cell_length_c   24.86063300
_cell_angle_alpha   90.00000000
_cell_angle_beta   90.00000000
_cell_angle_gamma   59.99999484
_symmetry_Int_Tables_number   1
_chemical_formula_structural   FeAgS2
_chemical_formula_sum   'Fe1 Ag1 S2'
_cell_volume   212.03773814
_cell_formula_units_Z   1
loop_
 _symmetry_equiv_pos_site_id
 _symmetry_equiv_pos_as_xyz
  1  'x, y, z'
loop_
 _atom_site_type_symbol
 _atom_site_label
 _atom_site_symmetry_multiplicity
 _atom_site_fract_x
 _atom_site_fract_y
 _atom_site_fract_z
 _atom_site_occupancy
  Fe  Fe1  1  0.000000  0.000000  0.540439  1
  Ag  Ag2  1  0.666667  0.666667  0.378506  1
  S  S3  1  0.666667  0.666667  0.485809  1
  S  S4  1  0.333333  0.333333  0.595246  1
