# generated using pymatgen
data_ZnFe4O9
_symmetry_space_group_name_H-M   'P 1'
_cell_length_a   8.50789142
_cell_length_b   8.46853153
_cell_length_c   23.80686800
_cell_angle_alpha   90.25486581
_cell_angle_beta   90.12317278
_cell_angle_gamma   90.39008766
_symmetry_Int_Tables_number   1
_chemical_formula_structural   ZnFe4O9
_chemical_formula_sum   'Zn2 Fe8 O18'
_cell_volume   1715.20848789
_cell_formula_units_Z   2
loop_
 _symmetry_equiv_pos_site_id
 _symmetry_equiv_pos_as_xyz
  1  'x, y, z'
loop_
 _atom_site_type_symbol
 _atom_site_label
 _atom_site_symmetry_multiplicity
 _atom_site_fract_x
 _atom_site_fract_y
 _atom_site_fract_z
 _atom_site_occupancy
  Zn  Zn1  1  0.246132  0.742365  0.600400  1
  Zn  Zn2  1  0.754048  0.259134  0.399583  1
  Fe  Fe3  1  0.337585  0.467014  0.519686  1
  Fe  Fe4  1  0.474544  0.164149  0.479205  1
  Fe  Fe5  1  0.968578  0.665746  0.521948  1
  Fe  Fe6  1  0.835506  0.973049  0.480974  1
  Fe  Fe7  1  0.165729  0.029738  0.519344  1
  Fe  Fe8  1  0.525811  0.838543  0.520247  1
  Fe  Fe9  1  0.662901  0.535302  0.480338  1
  Fe  Fe10  1  0.031837  0.336316  0.478118  1
  O  O11  1  0.253451  0.250365  0.497450  1
  O  O12  1  0.747161  0.752258  0.502482  1
  O  O13  1  0.970194  0.308149  0.406128  1
  O  O14  1  0.682083  0.472238  0.409416  1
  O  O15  1  0.803234  0.039375  0.408492  1
  O  O16  1  0.545250  0.182367  0.406642  1
  O  O17  1  0.029785  0.693290  0.593795  1
  O  O18  1  0.319438  0.530000  0.590640  1
  O  O19  1  0.200706  0.962982  0.591776  1
  O  O20  1  0.454501  0.821304  0.592966  1
  O  O21  1  0.359221  0.964348  0.486575  1
  O  O22  1  0.032786  0.859835  0.487566  1
  O  O23  1  0.465314  0.639892  0.485845  1
  O  O24  1  0.144167  0.535977  0.492078  1
  O  O25  1  0.856490  0.466562  0.508032  1
  O  O26  1  0.967842  0.142310  0.513161  1
  O  O27  1  0.535184  0.362662  0.514086  1
  O  O28  1  0.641544  0.038102  0.513031  1
