# generated using pymatgen
data_VBrO
_symmetry_space_group_name_H-M   'P 1'
_cell_length_a   3.45605745
_cell_length_b   3.83416531
_cell_length_c   25.59380400
_cell_angle_alpha   90.00000000
_cell_angle_beta   90.00000000
_cell_angle_gamma   90.00000000
_symmetry_Int_Tables_number   1
_chemical_formula_structural   VBrO
_chemical_formula_sum   'V2 Br2 O2'
_cell_volume   339.14594317
_cell_formula_units_Z   2
loop_
 _symmetry_equiv_pos_site_id
 _symmetry_equiv_pos_as_xyz
  1  'x, y, z'
loop_
 _atom_site_type_symbol
 _atom_site_label
 _atom_site_symmetry_multiplicity
 _atom_site_fract_x
 _atom_site_fract_y
 _atom_site_fract_z
 _atom_site_occupancy
  V  V1  1  0.500000  -0.000000  0.464187  1
  V  V2  1  -0.000000  0.500000  0.535813  1
  Br  Br3  1  0.000000  -0.000000  0.390896  1
  Br  Br4  1  0.500000  0.500000  0.609104  1
  O  O5  1  0.500000  0.500000  0.486927  1
  O  O6  1  -0.000000  -0.000000  0.513073  1
