# generated using pymatgen
data_Si3Sb2O9
_symmetry_space_group_name_H-M   'P 1'
_cell_length_a   6.99155749
_cell_length_b   6.99155739
_cell_length_c   24.91687500
_cell_angle_alpha   90.00000000
_cell_angle_beta   90.00000000
_cell_angle_gamma   120.00000043
_symmetry_Int_Tables_number   1
_chemical_formula_structural   Si3Sb2O9
_chemical_formula_sum   'Si3 Sb2 O9'
_cell_volume   1054.80471790
_cell_formula_units_Z   1
loop_
 _symmetry_equiv_pos_site_id
 _symmetry_equiv_pos_as_xyz
  1  'x, y, z'
loop_
 _atom_site_type_symbol
 _atom_site_label
 _atom_site_symmetry_multiplicity
 _atom_site_fract_x
 _atom_site_fract_y
 _atom_site_fract_z
 _atom_site_occupancy
  Si  Si1  1  0.392466  0.267164  0.500000  1
  Si  Si2  1  0.874696  0.607534  0.500000  1
  Si  Si3  1  0.732836  0.125304  0.500000  1
  Sb  Sb4  1  -0.000000  -0.000000  0.594272  1
  Sb  Sb5  1  -0.000000  -0.000000  0.405728  1
  O  O6  1  0.249036  0.235296  0.554506  1
  O  O7  1  0.249036  0.235296  0.445494  1
  O  O8  1  0.986260  0.750964  0.554506  1
  O  O9  1  0.986260  0.750964  0.445494  1
  O  O10  1  0.607419  0.516762  0.500000  1
  O  O11  1  0.764704  0.013740  0.554506  1
  O  O12  1  0.764704  0.013740  0.445494  1
  O  O13  1  0.483238  0.090658  0.500000  1
  O  O14  1  0.909342  0.392581  0.500000  1
