# generated using pymatgen
data_W3O8
_symmetry_space_group_name_H-M   'P 1'
_cell_length_a   4.98097803
_cell_length_b   5.45872664
_cell_length_c   25.19282455
_cell_angle_alpha   90.05855092
_cell_angle_beta   90.01671596
_cell_angle_gamma   103.69052196
_symmetry_Int_Tables_number   1
_chemical_formula_structural   W3O8
_chemical_formula_sum   'W3 O8'
_cell_volume   665.52567081
_cell_formula_units_Z   1
loop_
 _symmetry_equiv_pos_site_id
 _symmetry_equiv_pos_as_xyz
  1  'x, y, z'
loop_
 _atom_site_type_symbol
 _atom_site_label
 _atom_site_symmetry_multiplicity
 _atom_site_fract_x
 _atom_site_fract_y
 _atom_site_fract_z
 _atom_site_occupancy
  W  W1  1  0.071310  0.998669  0.500008  1
  W  W2  1  0.364521  0.551352  0.548131  1
  W  W3  1  0.778229  0.445971  0.451875  1
  O  O4  1  0.501235  0.482109  0.607589  1
  O  O5  1  0.241638  0.841952  0.561202  1
  O  O6  1  0.447735  0.280283  0.494233  1
  O  O7  1  0.127678  0.689780  0.458180  1
  O  O8  1  0.901123  0.155425  0.438800  1
  O  O9  1  0.641582  0.515291  0.392387  1
  O  O10  1  0.694954  0.717065  0.505757  1
  O  O11  1  0.015009  0.307562  0.541835  1
