# generated using pymatgen
data_MnHO2
_symmetry_space_group_name_H-M   'P 1'
_cell_length_a   2.95121800
_cell_length_b   3.24195804
_cell_length_c   23.08995700
_cell_angle_alpha   90.00000000
_cell_angle_beta   90.00000000
_cell_angle_gamma   117.06233582
_symmetry_Int_Tables_number   1
_chemical_formula_structural   MnHO2
_chemical_formula_sum   'Mn1 H1 O2'
_cell_volume   196.73046397
_cell_formula_units_Z   1
loop_
 _symmetry_equiv_pos_site_id
 _symmetry_equiv_pos_as_xyz
  1  'x, y, z'
loop_
 _atom_site_type_symbol
 _atom_site_label
 _atom_site_symmetry_multiplicity
 _atom_site_fract_x
 _atom_site_fract_y
 _atom_site_fract_z
 _atom_site_occupancy
  Mn  Mn1  1  0.084883  0.072553  0.528018  1
  H  H2  1  0.672055  0.245316  0.434639  1
  O  O3  1  0.722207  0.346586  0.474865  1
  O  O4  1  0.423273  0.748956  0.562478  1
