# generated using pymatgen
data_Ba2ZrS4
_symmetry_space_group_name_H-M   'P 1'
_cell_length_a   5.00258540
_cell_length_b   5.00258540
_cell_length_c   29.28336637
_cell_angle_alpha   90.00000000
_cell_angle_beta   90.00000000
_cell_angle_gamma   90.00000000
_symmetry_Int_Tables_number   1
_chemical_formula_structural   Ba2ZrS4
_chemical_formula_sum   'Ba2 Zr1 S4'
_cell_volume   732.84144714
_cell_formula_units_Z   1
loop_
 _symmetry_equiv_pos_site_id
 _symmetry_equiv_pos_as_xyz
  1  'x, y, z'
loop_
 _atom_site_type_symbol
 _atom_site_label
 _atom_site_symmetry_multiplicity
 _atom_site_fract_x
 _atom_site_fract_y
 _atom_site_fract_z
 _atom_site_occupancy
  Ba  Ba1  1  -0.000000  -0.000000  0.677619  1
  Ba  Ba2  1  0.000000  0.000000  0.322381  1
  Zr  Zr3  1  0.000000  0.000000  0.500000  1
  S  S4  1  0.000000  0.500000  0.500000  1
  S  S5  1  0.500000  0.000000  0.500000  1
  S  S6  1  0.000000  0.000000  0.588311  1
  S  S7  1  -0.000000  -0.000000  0.411689  1
