# generated using pymatgen
data_ScF3
_symmetry_space_group_name_H-M   'P 1'
_cell_length_a   4.73899545
_cell_length_b   5.34426348
_cell_length_c   22.43412400
_cell_angle_alpha   90.00000000
_cell_angle_beta   90.00000000
_cell_angle_gamma   90.00000000
_symmetry_Int_Tables_number   1
_chemical_formula_structural   ScF3
_chemical_formula_sum   'Sc2 F6'
_cell_volume   568.17650251
_cell_formula_units_Z   2
loop_
 _symmetry_equiv_pos_site_id
 _symmetry_equiv_pos_as_xyz
  1  'x, y, z'
loop_
 _atom_site_type_symbol
 _atom_site_label
 _atom_site_symmetry_multiplicity
 _atom_site_fract_x
 _atom_site_fract_y
 _atom_site_fract_z
 _atom_site_occupancy
  Sc  Sc1  1  0.183154  0.625469  0.500000  1
  Sc  Sc2  1  0.816846  0.125469  0.500000  1
  F  F3  1  0.043653  0.352028  0.443838  1
  F  F4  1  0.956347  0.852028  0.556162  1
  F  F5  1  0.442118  0.940828  0.500000  1
  F  F6  1  0.557882  0.440828  0.500000  1
  F  F7  1  0.043653  0.352028  0.556162  1
  F  F8  1  0.956347  0.852028  0.443838  1
