# generated using pymatgen
data_UTl2O4
_symmetry_space_group_name_H-M   'P 1'
_cell_length_a   4.34763616
_cell_length_b   4.34763616
_cell_length_c   24.35414900
_cell_angle_alpha   90.00000000
_cell_angle_beta   90.00000000
_cell_angle_gamma   90.00000000
_symmetry_Int_Tables_number   1
_chemical_formula_structural   UTl2O4
_chemical_formula_sum   'U1 Tl2 O4'
_cell_volume   460.34066753
_cell_formula_units_Z   1
loop_
 _symmetry_equiv_pos_site_id
 _symmetry_equiv_pos_as_xyz
  1  'x, y, z'
loop_
 _atom_site_type_symbol
 _atom_site_label
 _atom_site_symmetry_multiplicity
 _atom_site_fract_x
 _atom_site_fract_y
 _atom_site_fract_z
 _atom_site_occupancy
  U  U1  1  0.000000  0.000000  0.500000  1
  Tl  Tl2  1  0.500000  0.500000  0.589128  1
  Tl  Tl3  1  0.500000  0.500000  0.410872  1
  O  O4  1  0.000000  0.000000  0.420160  1
  O  O5  1  0.000000  0.000000  0.579840  1
  O  O6  1  0.000000  0.500000  0.500000  1
  O  O7  1  0.500000  0.000000  0.500000  1
