# generated using pymatgen
data_Zn(GaS2)2
_symmetry_space_group_name_H-M   'P 1'
_cell_length_a   3.72338026
_cell_length_b   3.72338015
_cell_length_c   29.12836600
_cell_angle_alpha   90.00000000
_cell_angle_beta   90.00000000
_cell_angle_gamma   119.99999213
_symmetry_Int_Tables_number   1
_chemical_formula_structural   Zn(GaS2)2
_chemical_formula_sum   'Zn1 Ga2 S4'
_cell_volume   349.72087766
_cell_formula_units_Z   1
loop_
 _symmetry_equiv_pos_site_id
 _symmetry_equiv_pos_as_xyz
  1  'x, y, z'
loop_
 _atom_site_type_symbol
 _atom_site_label
 _atom_site_symmetry_multiplicity
 _atom_site_fract_x
 _atom_site_fract_y
 _atom_site_fract_z
 _atom_site_occupancy
  Zn  Zn1  1  0.333333  0.666667  0.634251  1
  Ga  Ga2  1  -0.000000  -0.000000  0.502954  1
  Ga  Ga3  1  0.666667  0.333333  0.374774  1
  S  S4  1  0.333333  0.666667  0.340745  1
  S  S5  1  0.666667  0.333333  0.451360  1
  S  S6  1  0.333333  0.666667  0.541786  1
  S  S7  1  -0.000000  -0.000000  0.654131  1
