# generated using pymatgen
data_BaH6C4O7
_symmetry_space_group_name_H-M   'P 1'
_cell_length_a   8.17604904
_cell_length_b   8.85721904
_cell_length_c   26.85247800
_cell_angle_alpha   90.00000000
_cell_angle_beta   90.00000000
_cell_angle_gamma   58.51636604
_symmetry_Int_Tables_number   1
_chemical_formula_structural   BaH6C4O7
_chemical_formula_sum   'Ba2 H12 C8 O14'
_cell_volume   1658.31497953
_cell_formula_units_Z   2
loop_
 _symmetry_equiv_pos_site_id
 _symmetry_equiv_pos_as_xyz
  1  'x, y, z'
loop_
 _atom_site_type_symbol
 _atom_site_label
 _atom_site_symmetry_multiplicity
 _atom_site_fract_x
 _atom_site_fract_y
 _atom_site_fract_z
 _atom_site_occupancy
  Ba  Ba1  1  0.203561  0.215065  0.517949  1
  Ba  Ba2  1  0.796439  0.784935  0.482051  1
  H  H3  1  0.007277  0.449851  0.417599  1
  H  H4  1  0.992723  0.550149  0.582401  1
  H  H5  1  0.799236  0.537306  0.577964  1
  H  H6  1  0.200764  0.462694  0.422036  1
  H  H7  1  0.085715  0.089488  0.408462  1
  H  H8  1  0.914285  0.910512  0.591538  1
  H  H9  1  0.157426  0.943542  0.450593  1
  H  H10  1  0.842574  0.056458  0.549407  1
  H  H11  1  0.998119  0.167002  0.624351  1
  H  H12  1  0.001881  0.832998  0.375649  1
  H  H13  1  0.194405  0.984322  0.625864  1
  H  H14  1  0.805595  0.015678  0.374136  1
  C  C15  1  0.262742  0.720824  0.517127  1
  C  C16  1  0.737258  0.279176  0.482873  1
  C  C17  1  0.335267  0.564030  0.549951  1
  C  C18  1  0.664733  0.435970  0.450049  1
  C  C19  1  0.491029  0.590926  0.567460  1
  C  C20  1  0.508971  0.409074  0.432540  1
  C  C21  1  0.413366  0.749366  0.535458  1
  C  C22  1  0.586634  0.250634  0.464542  1
  O  O23  1  0.907119  0.539545  0.559259  1
  O  O24  1  0.092881  0.460455  0.440741  1
  O  O25  1  0.181778  0.032713  0.434490  1
  O  O26  1  0.818222  0.967287  0.565510  1
  O  O27  1  0.127794  0.101414  0.610675  1
  O  O28  1  0.872206  0.898586  0.389325  1
  O  O29  1  0.869643  0.204674  0.514781  1
  O  O30  1  0.130357  0.795326  0.485219  1
  O  O31  1  0.286714  0.453408  0.558054  1
  O  O32  1  0.713286  0.546592  0.441946  1
  O  O33  1  0.633313  0.510584  0.595724  1
  O  O34  1  0.366687  0.489416  0.404276  1
  O  O35  1  0.460093  0.862811  0.526898  1
  O  O36  1  0.539907  0.137189  0.473102  1
