# generated using pymatgen
data_LiV(SO4)3
_symmetry_space_group_name_H-M   'P 1'
_cell_length_a   7.65020277
_cell_length_b   8.99459175
_cell_length_c   26.27764700
_cell_angle_alpha   90.32494949
_cell_angle_beta   85.99595459
_cell_angle_gamma   69.56388999
_symmetry_Int_Tables_number   1
_chemical_formula_structural   LiV(SO4)3
_chemical_formula_sum   'Li2 V2 S6 O24'
_cell_volume   1689.36444275
_cell_formula_units_Z   2
loop_
 _symmetry_equiv_pos_site_id
 _symmetry_equiv_pos_as_xyz
  1  'x, y, z'
loop_
 _atom_site_type_symbol
 _atom_site_label
 _atom_site_symmetry_multiplicity
 _atom_site_fract_x
 _atom_site_fract_y
 _atom_site_fract_z
 _atom_site_occupancy
  Li  Li1  1  0.881130  0.628695  0.587946  1
  Li  Li2  1  0.110819  0.419379  0.412054  1
  V  V3  1  0.495974  0.524037  0.500000  1
  V  V4  1  0.495974  0.024037  0.500000  1
  S  S5  1  0.506937  0.283437  0.407903  1
  S  S6  1  0.242836  0.850373  0.447947  1
  S  S7  1  0.188758  0.357079  0.534229  1
  S  S8  1  0.803191  0.690995  0.465771  1
  S  S9  1  0.749113  0.197700  0.552053  1
  S  S10  1  0.485012  0.764637  0.592097  1
  O  O11  1  0.548453  0.604015  0.562334  1
  O  O12  1  0.637834  0.757295  0.622638  1
  O  O13  1  0.311978  0.460518  0.536108  1
  O  O14  1  0.049159  0.412767  0.576325  1
  O  O15  1  0.122940  0.360966  0.483818  1
  O  O16  1  0.680702  0.326829  0.510159  1
  O  O17  1  0.350052  0.786617  0.401025  1
  O  O18  1  0.507367  0.166849  0.451150  1
  O  O19  1  0.690596  0.243735  0.384357  1
  O  O20  1  0.301675  0.987312  0.467815  1
  O  O21  1  0.948067  0.142504  0.548887  1
  O  O22  1  0.673112  0.856741  0.455710  1
  O  O23  1  0.318837  0.191332  0.544290  1
  O  O24  1  0.043882  0.905570  0.451113  1
  O  O25  1  0.690274  0.060762  0.532185  1
  O  O26  1  0.301353  0.804338  0.615643  1
  O  O27  1  0.484582  0.881225  0.548850  1
  O  O28  1  0.641897  0.261456  0.598975  1
  O  O29  1  0.311247  0.721244  0.489841  1
  O  O30  1  0.869009  0.687107  0.516182  1
  O  O31  1  0.942790  0.635307  0.423675  1
  O  O32  1  0.679971  0.587556  0.463892  1
  O  O33  1  0.354115  0.290779  0.377362  1
  O  O34  1  0.443496  0.444058  0.437666  1
