# generated using pymatgen
data_U(OF)2
_symmetry_space_group_name_H-M   'P 1'
_cell_length_a   3.41723950
_cell_length_b   4.06646903
_cell_length_c   22.48109353
_cell_angle_alpha   89.42933165
_cell_angle_beta   90.00000000
_cell_angle_gamma   90.00000000
_symmetry_Int_Tables_number   1
_chemical_formula_structural   U(OF)2
_chemical_formula_sum   'U1 O2 F2'
_cell_volume   312.38399723
_cell_formula_units_Z   1
loop_
 _symmetry_equiv_pos_site_id
 _symmetry_equiv_pos_as_xyz
  1  'x, y, z'
loop_
 _atom_site_type_symbol
 _atom_site_label
 _atom_site_symmetry_multiplicity
 _atom_site_fract_x
 _atom_site_fract_y
 _atom_site_fract_z
 _atom_site_occupancy
  U  U1  1  0.500000  0.782250  0.500000  1
  O  O2  1  -0.000000  0.851740  0.448372  1
  O  O3  1  -0.000000  0.712760  0.551628  1
  F  F4  1  0.500000  0.224891  0.552699  1
  F  F5  1  0.500000  0.339609  0.447301  1
