# generated using pymatgen
data_CrO2
_symmetry_space_group_name_H-M   'P 1'
_cell_length_a   5.99710101
_cell_length_b   5.98327564
_cell_length_c   34.02225400
_cell_angle_alpha   90.00000000
_cell_angle_beta   90.00000000
_cell_angle_gamma   59.94758817
_symmetry_Int_Tables_number   1
_chemical_formula_structural   CrO2
_chemical_formula_sum   'Cr12 O24'
_cell_volume   1056.68241348
_cell_formula_units_Z   12
loop_
 _symmetry_equiv_pos_site_id
 _symmetry_equiv_pos_as_xyz
  1  'x, y, z'
loop_
 _atom_site_type_symbol
 _atom_site_label
 _atom_site_symmetry_multiplicity
 _atom_site_fract_x
 _atom_site_fract_y
 _atom_site_fract_z
 _atom_site_occupancy
  Cr  Cr1  1  0.306125  0.350928  0.655846  1
  Cr  Cr2  1  0.500063  0.002502  0.517914  1
  Cr  Cr3  1  0.667111  0.168999  0.589145  1
  Cr  Cr4  1  0.846038  0.810544  0.656153  1
  Cr  Cr5  1  0.000005  0.003117  0.517987  1
  Cr  Cr6  1  0.846643  0.350407  0.655660  1
  Cr  Cr7  1  0.335455  0.830221  0.447476  1
  Cr  Cr8  1  0.499734  0.502836  0.518310  1
  Cr  Cr9  1  0.657130  0.673055  0.376009  1
  Cr  Cr10  1  0.172455  0.155696  0.378075  1
  Cr  Cr11  1  0.170269  0.673067  0.376008  1
  Cr  Cr12  1  0.666519  0.167270  0.327122  1
  O  O13  1  0.694040  0.656013  0.682726  1
  O  O14  1  0.151877  0.198843  0.682598  1
  O  O15  1  0.999584  0.504651  0.624547  1
  O  O16  1  0.152753  0.657033  0.682730  1
  O  O17  1  0.385546  0.310978  0.550816  1
  O  O18  1  0.528096  0.031623  0.627535  1
  O  O19  1  0.666265  0.167523  0.280271  1
  O  O20  1  0.527596  0.448006  0.626989  1
  O  O21  1  0.807493  0.889254  0.551245  1
  O  O22  1  0.666926  0.165933  0.490682  1
  O  O23  1  0.807453  0.311244  0.550375  1
  O  O24  1  0.943747  0.031393  0.627226  1
  O  O25  1  0.047730  0.978730  0.409728  1
  O  O26  1  0.192756  0.692055  0.485909  1
  O  O27  1  0.332893  0.839491  0.545560  1
  O  O28  1  0.192735  0.115864  0.484767  1
  O  O29  1  0.328537  0.843479  0.346831  1
  O  O30  1  0.473306  0.553901  0.409560  1
  O  O31  1  0.474297  0.978908  0.409677  1
  O  O32  1  0.616473  0.691964  0.485543  1
  O  O33  1  0.822834  0.323294  0.343838  1
  O  O34  1  0.823628  0.853263  0.343779  1
  O  O35  1  0.003866  0.492701  0.397520  1
  O  O36  1  0.354264  0.323329  0.343841  1
