# generated using pymatgen
data_Cr3N2
_symmetry_space_group_name_H-M   'P 1'
_cell_length_a   5.22243029
_cell_length_b   5.22385935
_cell_length_c   22.03425200
_cell_angle_alpha   90.00000000
_cell_angle_beta   90.00000000
_cell_angle_gamma   59.99094403
_symmetry_Int_Tables_number   1
_chemical_formula_structural   Cr3N2
_chemical_formula_sum   'Cr3 N2'
_cell_volume   520.53919005
_cell_formula_units_Z   1
loop_
 _symmetry_equiv_pos_site_id
 _symmetry_equiv_pos_as_xyz
  1  'x, y, z'
loop_
 _atom_site_type_symbol
 _atom_site_label
 _atom_site_symmetry_multiplicity
 _atom_site_fract_x
 _atom_site_fract_y
 _atom_site_fract_z
 _atom_site_occupancy
  Cr  Cr1  1  0.997380  0.679021  0.500000  1
  Cr  Cr2  1  0.676489  0.323807  0.502333  1
  Cr  Cr3  1  0.318271  0.002916  0.497667  1
  N  N4  1  0.663892  0.667145  0.481222  1
  N  N5  1  0.330868  0.333658  0.518778  1
