# generated using pymatgen
data_ZnNi2O5
_symmetry_space_group_name_H-M   'P 1'
_cell_length_a   3.86706762
_cell_length_b   10.68520461
_cell_length_c   23.48787200
_cell_angle_alpha   90.00000000
_cell_angle_beta   90.00000000
_cell_angle_gamma   90.00000000
_symmetry_Int_Tables_number   1
_chemical_formula_structural   ZnNi2O5
_chemical_formula_sum   'Zn2 Ni4 O10'
_cell_volume   970.52847195
_cell_formula_units_Z   2
loop_
 _symmetry_equiv_pos_site_id
 _symmetry_equiv_pos_as_xyz
  1  'x, y, z'
loop_
 _atom_site_type_symbol
 _atom_site_label
 _atom_site_symmetry_multiplicity
 _atom_site_fract_x
 _atom_site_fract_y
 _atom_site_fract_z
 _atom_site_occupancy
  Zn  Zn1  1  0.500000  0.249330  0.441257  1
  Zn  Zn2  1  -0.000000  0.749081  0.558632  1
  Ni  Ni3  1  -0.000000  0.096522  0.497360  1
  Ni  Ni4  1  0.500000  0.902272  0.502761  1
  Ni  Ni5  1  0.500000  0.596519  0.502409  1
  Ni  Ni6  1  0.000000  0.401924  0.497572  1
  O  O7  1  0.500000  0.749223  0.552641  1
  O  O8  1  -0.000000  0.249385  0.447233  1
  O  O9  1  0.500000  0.080409  0.482096  1
  O  O10  1  -0.000000  0.917698  0.517940  1
  O  O11  1  0.500000  0.417740  0.482546  1
  O  O12  1  -0.000000  0.581040  0.517419  1
  O  O13  1  -0.000000  0.310107  0.572420  1
  O  O14  1  0.500000  0.688606  0.427602  1
  O  O15  1  0.500000  0.811335  0.427796  1
  O  O16  1  -0.000000  0.187312  0.572315  1
