# generated using pymatgen
data_Dy2Te5O13
_symmetry_space_group_name_H-M   'P 1'
_cell_length_a   7.01124177
_cell_length_b   8.59975588
_cell_length_c   31.01643600
_cell_angle_alpha   90.00000000
_cell_angle_beta   90.00000000
_cell_angle_gamma   75.41362210
_symmetry_Int_Tables_number   1
_chemical_formula_structural   Dy2Te5O13
_chemical_formula_sum   'Dy4 Te10 O26'
_cell_volume   1809.85881933
_cell_formula_units_Z   2
loop_
 _symmetry_equiv_pos_site_id
 _symmetry_equiv_pos_as_xyz
  1  'x, y, z'
loop_
 _atom_site_type_symbol
 _atom_site_label
 _atom_site_symmetry_multiplicity
 _atom_site_fract_x
 _atom_site_fract_y
 _atom_site_fract_z
 _atom_site_occupancy
  Dy  Dy1  1  0.565040  0.529093  0.562071  1
  Dy  Dy2  1  0.019957  0.726010  0.583570  1
  Dy  Dy3  1  0.980043  0.273990  0.416430  1
  Dy  Dy4  1  0.434960  0.470907  0.437929  1
  Te  Te5  1  0.246426  0.381538  0.323570  1
  Te  Te6  1  0.285774  0.881927  0.491179  1
  Te  Te7  1  0.753574  0.618462  0.676430  1
  Te  Te8  1  0.714226  0.118073  0.508821  1
  Te  Te9  1  0.459536  0.910156  0.602954  1
  Te  Te10  1  0.540464  0.089844  0.397046  1
  Te  Te11  1  0.133774  0.345231  0.535821  1
  Te  Te12  1  0.124098  0.806090  0.377245  1
  Te  Te13  1  0.875902  0.193910  0.622755  1
  Te  Te14  1  0.866226  0.654769  0.464179  1
  O  O15  1  0.641876  0.006689  0.457918  1
  O  O16  1  0.111786  0.489319  0.462729  1
  O  O17  1  0.888214  0.510681  0.537271  1
  O  O18  1  0.427158  0.179494  0.335091  1
  O  O19  1  0.683810  0.487651  0.633103  1
  O  O20  1  0.313248  0.743873  0.421474  1
  O  O21  1  0.744984  0.509002  0.436273  1
  O  O22  1  0.686473  0.777075  0.576379  1
  O  O23  1  0.062028  0.818394  0.513462  1
  O  O24  1  0.665315  0.259155  0.402527  1
  O  O25  1  0.464680  0.674096  0.499468  1
  O  O26  1  0.087831  0.264548  0.595251  1
  O  O27  1  0.040564  0.020407  0.394343  1
  O  O28  1  0.316190  0.512349  0.366897  1
  O  O29  1  0.358124  0.993311  0.542082  1
  O  O30  1  0.535320  0.325904  0.500532  1
  O  O31  1  0.572842  0.820506  0.664909  1
  O  O32  1  0.015724  0.354774  0.348674  1
  O  O33  1  0.912169  0.735452  0.404749  1
  O  O34  1  0.255016  0.490998  0.563727  1
  O  O35  1  0.959436  0.979593  0.605657  1
  O  O36  1  0.984276  0.645226  0.651326  1
  O  O37  1  0.686752  0.256127  0.578526  1
  O  O38  1  0.937972  0.181606  0.486538  1
  O  O39  1  0.334685  0.740845  0.597473  1
  O  O40  1  0.313527  0.222925  0.423621  1
