# generated using pymatgen
data_Mg(AlS2)2
_symmetry_space_group_name_H-M   'P 1'
_cell_length_a   3.70521556
_cell_length_b   3.70521630
_cell_length_c   29.03837200
_cell_angle_alpha   90.00000000
_cell_angle_beta   90.00000000
_cell_angle_gamma   59.99999770
_symmetry_Int_Tables_number   1
_chemical_formula_structural   Mg(AlS2)2
_chemical_formula_sum   'Mg1 Al2 S4'
_cell_volume   345.24701437
_cell_formula_units_Z   1
loop_
 _symmetry_equiv_pos_site_id
 _symmetry_equiv_pos_as_xyz
  1  'x, y, z'
loop_
 _atom_site_type_symbol
 _atom_site_label
 _atom_site_symmetry_multiplicity
 _atom_site_fract_x
 _atom_site_fract_y
 _atom_site_fract_z
 _atom_site_occupancy
  Mg  Mg1  1  0.666667  0.666667  0.500000  1
  Al  Al2  1  0.000000  -0.000000  0.622348  1
  Al  Al3  1  0.333333  0.333333  0.377652  1
  S  S4  1  0.666667  0.666667  0.344457  1
  S  S5  1  0.666667  0.666667  0.655543  1
  S  S6  1  0.000000  0.000000  0.547594  1
  S  S7  1  0.333333  0.333333  0.452406  1
