# generated using pymatgen
data_LiNiPO4
_symmetry_space_group_name_H-M   'P 1'
_cell_length_a   4.69145462
_cell_length_b   6.13737702
_cell_length_c   23.15157662
_cell_angle_alpha   90.00000000
_cell_angle_beta   90.20840971
_cell_angle_gamma   90.00000000
_symmetry_Int_Tables_number   1
_chemical_formula_structural   LiNiPO4
_chemical_formula_sum   'Li2 Ni2 P2 O8'
_cell_volume   666.60416269
_cell_formula_units_Z   2
loop_
 _symmetry_equiv_pos_site_id
 _symmetry_equiv_pos_as_xyz
  1  'x, y, z'
loop_
 _atom_site_type_symbol
 _atom_site_label
 _atom_site_symmetry_multiplicity
 _atom_site_fract_x
 _atom_site_fract_y
 _atom_site_fract_z
 _atom_site_occupancy
  Li  Li1  1  0.544487  0.250000  0.419350  1
  Li  Li2  1  0.455513  0.750000  0.580650  1
  Ni  Ni3  1  -0.000000  0.000000  0.500000  1
  Ni  Ni4  1  -0.000000  0.500000  0.500000  1
  P  P5  1  0.583747  0.750000  0.457289  1
  P  P6  1  0.416253  0.250000  0.542711  1
  O  O7  1  0.263758  0.250000  0.479713  1
  O  O8  1  0.255749  0.750000  0.465573  1
  O  O9  1  0.696677  0.962019  0.430174  1
  O  O10  1  0.696677  0.537981  0.430174  1
  O  O11  1  0.303323  0.462019  0.569826  1
  O  O12  1  0.303323  0.037981  0.569826  1
  O  O13  1  0.744251  0.250000  0.534427  1
  O  O14  1  0.736242  0.750000  0.520287  1
