# generated using pymatgen
data_Bi2S2O
_symmetry_space_group_name_H-M   'P 1'
_cell_length_a   3.96701728
_cell_length_b   3.96701728
_cell_length_c   31.22294900
_cell_angle_alpha   90.00000000
_cell_angle_beta   90.00000000
_cell_angle_gamma   90.00000000
_symmetry_Int_Tables_number   1
_chemical_formula_structural   Bi2S2O
_chemical_formula_sum   'Bi4 S4 O2'
_cell_volume   491.36260792
_cell_formula_units_Z   2
loop_
 _symmetry_equiv_pos_site_id
 _symmetry_equiv_pos_as_xyz
  1  'x, y, z'
loop_
 _atom_site_type_symbol
 _atom_site_label
 _atom_site_symmetry_multiplicity
 _atom_site_fract_x
 _atom_site_fract_y
 _atom_site_fract_z
 _atom_site_occupancy
  Bi  Bi1  1  0.500000  -0.000000  0.334162  1
  Bi  Bi2  1  0.000000  0.500000  0.665838  1
  Bi  Bi3  1  0.000000  0.500000  0.459015  1
  Bi  Bi4  1  0.500000  0.000000  0.540985  1
  S  S5  1  0.000000  0.500000  0.320065  1
  S  S6  1  0.500000  -0.000000  0.679935  1
  S  S7  1  0.500000  0.000000  0.415154  1
  S  S8  1  -0.000000  0.500000  0.584846  1
  O  O9  1  0.000000  0.000000  0.500000  1
  O  O10  1  0.500000  0.500000  0.500000  1
