# generated using pymatgen
data_AgCSN
_symmetry_space_group_name_H-M   'P 1'
_cell_length_a   4.11814700
_cell_length_b   11.37134325
_cell_length_c   22.99294700
_cell_angle_alpha   90.00000000
_cell_angle_beta   90.00000000
_cell_angle_gamma   90.00000000
_symmetry_Int_Tables_number   1
_chemical_formula_structural   AgCSN
_chemical_formula_sum   'Ag2 C2 S2 N2'
_cell_volume   1076.73356712
_cell_formula_units_Z   2
loop_
 _symmetry_equiv_pos_site_id
 _symmetry_equiv_pos_as_xyz
  1  'x, y, z'
loop_
 _atom_site_type_symbol
 _atom_site_label
 _atom_site_symmetry_multiplicity
 _atom_site_fract_x
 _atom_site_fract_y
 _atom_site_fract_z
 _atom_site_occupancy
  Ag  Ag1  1  0.500000  0.647398  0.473720  1
  Ag  Ag2  1  0.000000  0.147398  0.526280  1
  C  C3  1  -0.000000  0.879462  0.472751  1
  C  C4  1  0.500000  0.379462  0.527249  1
  S  S5  1  0.000000  0.753467  0.437352  1
  S  S6  1  0.500000  0.253467  0.562648  1
  N  N7  1  -0.000000  0.970643  0.496638  1
  N  N8  1  0.500000  0.470643  0.503362  1
