# generated using pymatgen
data_Cu3OF5
_symmetry_space_group_name_H-M   'P 1'
_cell_length_a   4.48998378
_cell_length_b   5.30324730
_cell_length_c   26.76129800
_cell_angle_alpha   90.00000000
_cell_angle_beta   90.00000000
_cell_angle_gamma   88.15233081
_symmetry_Int_Tables_number   1
_chemical_formula_structural   Cu3OF5
_chemical_formula_sum   'Cu6 O2 F10'
_cell_volume   636.89519042
_cell_formula_units_Z   2
loop_
 _symmetry_equiv_pos_site_id
 _symmetry_equiv_pos_as_xyz
  1  'x, y, z'
loop_
 _atom_site_type_symbol
 _atom_site_label
 _atom_site_symmetry_multiplicity
 _atom_site_fract_x
 _atom_site_fract_y
 _atom_site_fract_z
 _atom_site_occupancy
  Cu  Cu1  1  0.036240  0.707840  0.602805  1
  Cu  Cu2  1  0.544098  0.184709  0.600432  1
  Cu  Cu3  1  0.963760  0.292160  0.397195  1
  Cu  Cu4  1  0.455902  0.815291  0.399568  1
  Cu  Cu5  1  0.500000  0.500000  0.500000  1
  Cu  Cu6  1  -0.000000  0.000000  0.500000  1
  O  O7  1  0.165017  0.022223  0.428633  1
  O  O8  1  0.834983  0.977777  0.571367  1
  F  F9  1  0.245737  0.415229  0.629220  1
  F  F10  1  0.754263  0.584771  0.370780  1
  F  F11  1  0.343321  0.910604  0.628540  1
  F  F12  1  0.656679  0.089396  0.371460  1
  F  F13  1  0.260249  0.517306  0.420287  1
  F  F14  1  0.794444  0.295815  0.473948  1
  F  F15  1  0.687926  0.784155  0.473059  1
  F  F16  1  0.312074  0.215845  0.526941  1
  F  F17  1  0.739751  0.482694  0.579713  1
  F  F18  1  0.205556  0.704185  0.526052  1
