# generated using pymatgen
data_Li2MoP4O13
_symmetry_space_group_name_H-M   'P 1'
_cell_length_a   5.06743839
_cell_length_b   7.96499722
_cell_length_c   32.40977500
_cell_angle_alpha   90.16420502
_cell_angle_beta   90.68300600
_cell_angle_gamma   80.81351717
_symmetry_Int_Tables_number   1
_chemical_formula_structural   Li2MoP4O13
_chemical_formula_sum   'Li4 Mo2 P8 O26'
_cell_volume   1291.25717227
_cell_formula_units_Z   2
loop_
 _symmetry_equiv_pos_site_id
 _symmetry_equiv_pos_as_xyz
  1  'x, y, z'
loop_
 _atom_site_type_symbol
 _atom_site_label
 _atom_site_symmetry_multiplicity
 _atom_site_fract_x
 _atom_site_fract_y
 _atom_site_fract_z
 _atom_site_occupancy
  Li  Li1  1  0.074083  0.321997  0.504911  1
  Li  Li2  1  0.470961  0.443117  0.687830  1
  Li  Li3  1  0.529039  0.556883  0.312170  1
  Li  Li4  1  0.925917  0.678003  0.495089  1
  Mo  Mo5  1  0.492312  0.868685  0.394924  1
  Mo  Mo6  1  0.507688  0.131315  0.605076  1
  P  P7  1  0.026335  0.682528  0.349046  1
  P  P8  1  0.711533  0.487472  0.574989  1
  P  P9  1  0.962517  0.057210  0.441521  1
  P  P10  1  0.633644  0.244371  0.376360  1
  P  P11  1  0.366356  0.755629  0.623640  1
  P  P12  1  0.973665  0.317472  0.650954  1
  P  P13  1  0.037483  0.942790  0.558479  1
  P  P14  1  0.288467  0.512528  0.425011  1
  O  O15  1  0.860471  0.410738  0.688303  1
  O  O16  1  0.484457  0.640964  0.423826  1
  O  O17  1  0.269452  0.997680  0.438441  1
  O  O18  1  0.843605  0.503237  0.534760  1
  O  O19  1  0.072076  0.554812  0.389345  1
  O  O20  1  0.927924  0.445188  0.610655  1
  O  O21  1  0.886871  0.164848  0.478327  1
  O  O22  1  0.905940  0.179643  0.399983  1
  O  O23  1  0.552358  0.669075  0.586600  1
  O  O24  1  0.507019  0.088192  0.364259  1
  O  O25  1  0.447642  0.330925  0.413400  1
  O  O26  1  0.847347  0.161421  0.639201  1
  O  O27  1  0.665036  0.364751  0.343075  1
  O  O28  1  0.730548  0.002320  0.561559  1
  O  O29  1  0.334964  0.635249  0.656925  1
  O  O30  1  0.816987  0.903651  0.433905  1
  O  O31  1  0.152653  0.838579  0.360799  1
  O  O32  1  0.515543  0.359036  0.576174  1
  O  O33  1  0.183013  0.096349  0.566095  1
  O  O34  1  0.156395  0.496763  0.465240  1
  O  O35  1  0.113129  0.835152  0.521673  1
  O  O36  1  0.139529  0.589262  0.311697  1
  O  O37  1  0.715178  0.730812  0.348133  1
  O  O38  1  0.492981  0.911808  0.635741  1
  O  O39  1  0.094060  0.820357  0.600017  1
  O  O40  1  0.284822  0.269188  0.651867  1
