# generated using pymatgen
data_LiNiPO4
_symmetry_space_group_name_H-M   'P 1'
_cell_length_a   5.72347427
_cell_length_b   8.35028604
_cell_length_c   21.04729813
_cell_angle_alpha   90.00000000
_cell_angle_beta   90.00000000
_cell_angle_gamma   90.00000000
_symmetry_Int_Tables_number   1
_chemical_formula_structural   LiNiPO4
_chemical_formula_sum   'Li2 Ni2 P2 O8'
_cell_volume   1005.90609608
_cell_formula_units_Z   2
loop_
 _symmetry_equiv_pos_site_id
 _symmetry_equiv_pos_as_xyz
  1  'x, y, z'
loop_
 _atom_site_type_symbol
 _atom_site_label
 _atom_site_symmetry_multiplicity
 _atom_site_fract_x
 _atom_site_fract_y
 _atom_site_fract_z
 _atom_site_occupancy
  Li  Li1  1  0.500000  0.000000  0.500000  1
  Li  Li2  1  0.000000  0.000000  0.500000  1
  Ni  Ni3  1  0.250000  0.629383  0.500000  1
  Ni  Ni4  1  0.750000  0.370617  0.500000  1
  P  P5  1  0.750000  0.673383  0.500000  1
  P  P6  1  0.250000  0.326617  0.500000  1
  O  O7  1  0.750000  0.559350  0.557612  1
  O  O8  1  0.250000  0.440650  0.557612  1
  O  O9  1  0.973684  0.784996  0.500000  1
  O  O10  1  0.473684  0.215004  0.500000  1
  O  O11  1  0.526316  0.784996  0.500000  1
  O  O12  1  0.026316  0.215004  0.500000  1
  O  O13  1  0.250000  0.440650  0.442388  1
  O  O14  1  0.750000  0.559350  0.442388  1
