# generated using pymatgen
data_CuO2F
_symmetry_space_group_name_H-M   'P 1'
_cell_length_a   3.43838809
_cell_length_b   6.44109539
_cell_length_c   21.25088891
_cell_angle_alpha   90.00000000
_cell_angle_beta   90.00000000
_cell_angle_gamma   90.00000000
_symmetry_Int_Tables_number   1
_chemical_formula_structural   CuO2F
_chemical_formula_sum   'Cu2 O4 F2'
_cell_volume   470.64313228
_cell_formula_units_Z   2
loop_
 _symmetry_equiv_pos_site_id
 _symmetry_equiv_pos_as_xyz
  1  'x, y, z'
loop_
 _atom_site_type_symbol
 _atom_site_label
 _atom_site_symmetry_multiplicity
 _atom_site_fract_x
 _atom_site_fract_y
 _atom_site_fract_z
 _atom_site_occupancy
  Cu  Cu1  1  0.500000  0.283767  0.500000  1
  Cu  Cu2  1  0.000000  0.716233  0.500000  1
  O  O3  1  0.212866  0.099777  0.549373  1
  O  O4  1  0.287134  0.900223  0.549373  1
  O  O5  1  0.712866  0.900223  0.450627  1
  O  O6  1  0.787134  0.099777  0.450627  1
  F  F7  1  0.750000  0.500000  0.453130  1
  F  F8  1  0.250000  0.500000  0.546870  1
