# generated using pymatgen
data_CaB2(HO)8
_symmetry_space_group_name_H-M   'P 1'
_cell_length_a   5.67157476
_cell_length_b   8.24651527
_cell_length_c   25.90138490
_cell_angle_alpha   90.15616930
_cell_angle_beta   90.08621429
_cell_angle_gamma   90.58711083
_symmetry_Int_Tables_number   1
_chemical_formula_structural   CaB2(HO)8
_chemical_formula_sum   'Ca2 B4 H16 O16'
_cell_volume   1211.35710062
_cell_formula_units_Z   2
loop_
 _symmetry_equiv_pos_site_id
 _symmetry_equiv_pos_as_xyz
  1  'x, y, z'
loop_
 _atom_site_type_symbol
 _atom_site_label
 _atom_site_symmetry_multiplicity
 _atom_site_fract_x
 _atom_site_fract_y
 _atom_site_fract_z
 _atom_site_occupancy
  Ca  Ca1  1  0.322573  0.290407  0.512126  1
  Ca  Ca2  1  0.677427  0.709593  0.487874  1
  B  B3  1  0.758142  0.364891  0.451271  1
  B  B4  1  0.241858  0.635109  0.548729  1
  B  B5  1  0.220301  0.919412  0.429710  1
  B  B6  1  0.779699  0.080588  0.570290  1
  H  H7  1  0.923576  0.633948  0.584049  1
  H  H8  1  0.076424  0.366052  0.415951  1
  H  H9  1  0.819587  0.361098  0.530830  1
  H  H10  1  0.180413  0.638902  0.469170  1
  H  H11  1  0.633191  0.128931  0.449155  1
  H  H12  1  0.366809  0.871069  0.550845  1
  H  H13  1  0.591666  0.489138  0.393136  1
  H  H14  1  0.408334  0.510862  0.606864  1
  H  H15  1  0.084283  0.113717  0.394631  1
  H  H16  1  0.915717  0.886283  0.605369  1
  H  H17  1  0.992716  0.739267  0.402662  1
  H  H18  1  0.007284  0.260733  0.597338  1
  H  H19  1  0.937158  0.936306  0.520180  1
  H  H20  1  0.062842  0.063694  0.479820  1
  H  H21  1  0.467427  0.102168  0.606737  1
  H  H22  1  0.532573  0.897832  0.393263  1
  O  O23  1  0.003425  0.305677  0.444117  1
  O  O24  1  0.996575  0.694323  0.555883  1
  O  O25  1  0.724627  0.424294  0.505249  1
  O  O26  1  0.275373  0.575706  0.494751  1
  O  O27  1  0.581764  0.238480  0.440056  1
  O  O28  1  0.418236  0.761520  0.559944  1
  O  O29  1  0.283750  0.492225  0.581665  1
  O  O30  1  0.716250  0.507775  0.418335  1
  O  O31  1  0.157450  0.011524  0.385052  1
  O  O32  1  0.842550  0.988476  0.614948  1
  O  O33  1  0.960228  0.220554  0.563313  1
  O  O34  1  0.039772  0.779446  0.436687  1
  O  O35  1  0.216894  0.010290  0.479419  1
  O  O36  1  0.783106  0.989710  0.520581  1
  O  O37  1  0.458664  0.849148  0.423504  1
  O  O38  1  0.541336  0.150852  0.576496  1
