# generated using pymatgen
data_Bi2OF4
_symmetry_space_group_name_H-M   'P 1'
_cell_length_a   5.88013846
_cell_length_b   5.52338769
_cell_length_c   25.46039800
_cell_angle_alpha   90.00000000
_cell_angle_beta   90.00000000
_cell_angle_gamma   90.00000000
_symmetry_Int_Tables_number   1
_chemical_formula_structural   Bi2OF4
_chemical_formula_sum   'Bi4 O2 F8'
_cell_volume   826.91004681
_cell_formula_units_Z   2
loop_
 _symmetry_equiv_pos_site_id
 _symmetry_equiv_pos_as_xyz
  1  'x, y, z'
loop_
 _atom_site_type_symbol
 _atom_site_label
 _atom_site_symmetry_multiplicity
 _atom_site_fract_x
 _atom_site_fract_y
 _atom_site_fract_z
 _atom_site_occupancy
  Bi  Bi1  1  0.711735  0.526644  0.446930  1
  Bi  Bi2  1  0.288265  0.026644  0.446930  1
  Bi  Bi3  1  0.711735  0.973356  0.553070  1
  Bi  Bi4  1  0.288265  0.473356  0.553070  1
  O  O5  1  0.476761  0.750000  0.500000  1
  O  O6  1  0.523239  0.250000  0.500000  1
  F  F7  1  0.866008  0.928125  0.460239  1
  F  F8  1  0.133992  0.428125  0.460239  1
  F  F9  1  0.473997  0.739649  0.395366  1
  F  F10  1  0.526003  0.239649  0.395366  1
  F  F11  1  0.473997  0.760351  0.604634  1
  F  F12  1  0.526003  0.260351  0.604634  1
  F  F13  1  0.866008  0.571875  0.539761  1
  F  F14  1  0.133992  0.071875  0.539761  1
