# generated using pymatgen
data_KCrIO6
_symmetry_space_group_name_H-M   'P 1'
_cell_length_a   4.56734096
_cell_length_b   14.21434004
_cell_length_c   27.91104750
_cell_angle_alpha   90.99942453
_cell_angle_beta   90.00000000
_cell_angle_gamma   90.00000000
_symmetry_Int_Tables_number   1
_chemical_formula_structural   KCrIO6
_chemical_formula_sum   'K4 Cr4 I4 O24'
_cell_volume   1811.75803387
_cell_formula_units_Z   4
loop_
 _symmetry_equiv_pos_site_id
 _symmetry_equiv_pos_as_xyz
  1  'x, y, z'
loop_
 _atom_site_type_symbol
 _atom_site_label
 _atom_site_symmetry_multiplicity
 _atom_site_fract_x
 _atom_site_fract_y
 _atom_site_fract_z
 _atom_site_occupancy
  K  K1  1  0.103952  0.355966  0.528868  1
  K  K2  1  0.603952  0.144034  0.471132  1
  K  K3  1  0.396048  0.855966  0.528868  1
  K  K4  1  0.896048  0.644034  0.471132  1
  Cr  Cr5  1  0.963482  0.069897  0.572362  1
  Cr  Cr6  1  0.036518  0.930103  0.427638  1
  Cr  Cr7  1  0.536518  0.569897  0.572362  1
  Cr  Cr8  1  0.463482  0.430103  0.427638  1
  I  I9  1  0.338267  0.747413  0.368064  1
  I  I10  1  0.161733  0.247413  0.368064  1
  I  I11  1  0.838267  0.752587  0.631936  1
  I  I12  1  0.661733  0.252587  0.631936  1
  O  O13  1  0.288838  0.500771  0.593714  1
  O  O14  1  0.604045  0.289210  0.571587  1
  O  O15  1  0.741551  0.010462  0.537422  1
  O  O16  1  0.752746  0.121772  0.623401  1
  O  O17  1  0.788838  0.999229  0.406286  1
  O  O18  1  0.104045  0.210790  0.428413  1
  O  O19  1  0.252746  0.378228  0.376599  1
  O  O20  1  0.895955  0.789210  0.571587  1
  O  O21  1  0.022365  0.296889  0.645132  1
  O  O22  1  0.747254  0.621772  0.623401  1
  O  O23  1  0.758449  0.510462  0.537422  1
  O  O24  1  0.241551  0.489538  0.462578  1
  O  O25  1  0.105573  0.156560  0.541930  1
  O  O26  1  0.894427  0.843440  0.458070  1
  O  O27  1  0.211162  0.000771  0.593714  1
  O  O28  1  0.605573  0.343440  0.458070  1
  O  O29  1  0.247254  0.878228  0.376599  1
  O  O30  1  0.522365  0.203111  0.354868  1
  O  O31  1  0.394427  0.656560  0.541930  1
  O  O32  1  0.477635  0.796889  0.645132  1
  O  O33  1  0.711162  0.499229  0.406286  1
  O  O34  1  0.977635  0.703111  0.354868  1
  O  O35  1  0.395955  0.710790  0.428413  1
  O  O36  1  0.258449  0.989538  0.462578  1
