# generated using pymatgen
data_US3
_symmetry_space_group_name_H-M   'P 1'
_cell_length_a   3.91053164
_cell_length_b   5.40021723
_cell_length_c   25.92539000
_cell_angle_alpha   90.00000000
_cell_angle_beta   90.00000000
_cell_angle_gamma   90.00000000
_symmetry_Int_Tables_number   1
_chemical_formula_structural   US3
_chemical_formula_sum   'U2 S6'
_cell_volume   547.48513575
_cell_formula_units_Z   2
loop_
 _symmetry_equiv_pos_site_id
 _symmetry_equiv_pos_as_xyz
  1  'x, y, z'
loop_
 _atom_site_type_symbol
 _atom_site_label
 _atom_site_symmetry_multiplicity
 _atom_site_fract_x
 _atom_site_fract_y
 _atom_site_fract_z
 _atom_site_occupancy
  U  U1  1  0.750000  0.695962  0.449379  1
  U  U2  1  0.250000  0.195849  0.550621  1
  S  S3  1  0.750000  0.388819  0.614727  1
  S  S4  1  0.250000  0.502992  0.385273  1
  S  S5  1  0.250000  0.888949  0.385282  1
  S  S6  1  0.750000  0.002862  0.614718  1
  S  S7  1  0.250000  0.695871  0.523844  1
  S  S8  1  0.750000  0.195940  0.476156  1
