# generated using pymatgen
data_LiH2N
_symmetry_space_group_name_H-M   'P 1'
_cell_length_a   3.20379520
_cell_length_b   5.35430706
_cell_length_c   23.35210200
_cell_angle_alpha   90.00000000
_cell_angle_beta   90.00000000
_cell_angle_gamma   100.30925180
_symmetry_Int_Tables_number   1
_chemical_formula_structural   LiH2N
_chemical_formula_sum   'Li2 H4 N2'
_cell_volume   394.11739694
_cell_formula_units_Z   2
loop_
 _symmetry_equiv_pos_site_id
 _symmetry_equiv_pos_as_xyz
  1  'x, y, z'
loop_
 _atom_site_type_symbol
 _atom_site_label
 _atom_site_symmetry_multiplicity
 _atom_site_fract_x
 _atom_site_fract_y
 _atom_site_fract_z
 _atom_site_occupancy
  Li  Li1  1  0.328867  0.844112  0.510045  1
  Li  Li2  1  0.828867  0.344112  0.489955  1
  H  H3  1  0.921180  0.681901  0.579424  1
  H  H4  1  0.421179  0.181901  0.420576  1
  H  H5  1  0.997477  0.032501  0.449108  1
  H  H6  1  0.497477  0.532501  0.550892  1
  N  N7  1  0.279226  0.147207  0.460079  1
  N  N8  1  0.779226  0.647207  0.539921  1
