# generated using pymatgen
data_Zr(MoO4)2
_symmetry_space_group_name_H-M   'P 1'
_cell_length_a   5.97342164
_cell_length_b   5.97342105
_cell_length_c   27.07653600
_cell_angle_alpha   90.00000000
_cell_angle_beta   90.00000000
_cell_angle_gamma   119.99999771
_symmetry_Int_Tables_number   1
_chemical_formula_structural   Zr(MoO4)2
_chemical_formula_sum   'Zr1 Mo2 O8'
_cell_volume   836.70052930
_cell_formula_units_Z   1
loop_
 _symmetry_equiv_pos_site_id
 _symmetry_equiv_pos_as_xyz
  1  'x, y, z'
loop_
 _atom_site_type_symbol
 _atom_site_label
 _atom_site_symmetry_multiplicity
 _atom_site_fract_x
 _atom_site_fract_y
 _atom_site_fract_z
 _atom_site_occupancy
  Zr  Zr1  1  -0.000000  0.000000  0.500000  1
  Mo  Mo2  1  0.333333  0.666667  0.432833  1
  Mo  Mo3  1  0.666667  0.333333  0.567167  1
  O  O4  1  0.666667  0.333333  0.630551  1
  O  O5  1  0.333333  0.666667  0.369449  1
  O  O6  1  0.333824  0.166912  0.544372  1
  O  O7  1  0.666176  0.833088  0.455628  1
  O  O8  1  0.166912  0.333824  0.455628  1
  O  O9  1  0.833088  0.666176  0.544372  1
  O  O10  1  0.833088  0.166912  0.544372  1
  O  O11  1  0.166912  0.833088  0.455628  1
