# generated using pymatgen
data_CuHgO2
_symmetry_space_group_name_H-M   'P 1'
_cell_length_a   2.99085068
_cell_length_b   6.35179330
_cell_length_c   20.88270800
_cell_angle_alpha   90.00000000
_cell_angle_beta   90.00000000
_cell_angle_gamma   90.00000000
_symmetry_Int_Tables_number   1
_chemical_formula_structural   CuHgO2
_chemical_formula_sum   'Cu1 Hg1 O2'
_cell_volume   396.71434428
_cell_formula_units_Z   1
loop_
 _symmetry_equiv_pos_site_id
 _symmetry_equiv_pos_as_xyz
  1  'x, y, z'
loop_
 _atom_site_type_symbol
 _atom_site_label
 _atom_site_symmetry_multiplicity
 _atom_site_fract_x
 _atom_site_fract_y
 _atom_site_fract_z
 _atom_site_occupancy
  Cu  Cu1  1  0.500000  -0.000000  0.500000  1
  Hg  Hg2  1  0.000000  0.500000  0.500000  1
  O  O3  1  -0.000000  0.183832  0.514233  1
  O  O4  1  -0.000000  0.816168  0.485767  1
