# generated using pymatgen
data_VOF
_symmetry_space_group_name_H-M   'P 1'
_cell_length_a   3.13731754
_cell_length_b   3.85664914
_cell_length_c   24.41601700
_cell_angle_alpha   90.00000000
_cell_angle_beta   90.00000000
_cell_angle_gamma   90.00000000
_symmetry_Int_Tables_number   1
_chemical_formula_structural   VOF
_chemical_formula_sum   'V2 O2 F2'
_cell_volume   295.42240324
_cell_formula_units_Z   2
loop_
 _symmetry_equiv_pos_site_id
 _symmetry_equiv_pos_as_xyz
  1  'x, y, z'
loop_
 _atom_site_type_symbol
 _atom_site_label
 _atom_site_symmetry_multiplicity
 _atom_site_fract_x
 _atom_site_fract_y
 _atom_site_fract_z
 _atom_site_occupancy
  V  V1  1  0.249910  0.250000  0.539026  1
  V  V2  1  0.750090  0.750000  0.460974  1
  O  O3  1  0.750014  0.250000  0.482735  1
  O  O4  1  0.249986  0.750000  0.517265  1
  F  F5  1  0.749746  0.250000  0.590379  1
  F  F6  1  0.250254  0.750000  0.409621  1
