# generated using pymatgen
data_Ba2TlBi2O7
_symmetry_space_group_name_H-M   'P 1'
_cell_length_a   3.89047306
_cell_length_b   3.89101939
_cell_length_c   31.55475400
_cell_angle_alpha   90.00000000
_cell_angle_beta   90.00000000
_cell_angle_gamma   90.00000000
_symmetry_Int_Tables_number   1
_chemical_formula_structural   Ba2TlBi2O7
_chemical_formula_sum   'Ba2 Tl1 Bi2 O7'
_cell_volume   477.67290346
_cell_formula_units_Z   1
loop_
 _symmetry_equiv_pos_site_id
 _symmetry_equiv_pos_as_xyz
  1  'x, y, z'
loop_
 _atom_site_type_symbol
 _atom_site_label
 _atom_site_symmetry_multiplicity
 _atom_site_fract_x
 _atom_site_fract_y
 _atom_site_fract_z
 _atom_site_occupancy
  Ba  Ba1  1  0.500000  0.000044  0.588543  1
  Ba  Ba2  1  0.500000  0.000073  0.411443  1
  Tl  Tl3  1  -0.000000  0.501063  0.499943  1
  Bi  Bi4  1  0.000000  0.499978  0.683999  1
  Bi  Bi5  1  0.000000  0.500034  0.316003  1
  O  O6  1  0.500000  0.998317  0.500001  1
  O  O7  1  0.500000  0.500013  0.652240  1
  O  O8  1  -0.000000  0.999987  0.652258  1
  O  O9  1  0.500000  0.500046  0.347776  1
  O  O10  1  -0.000000  0.000033  0.347759  1
  O  O11  1  -0.000000  0.500016  0.564538  1
  O  O12  1  -0.000000  0.500038  0.435496  1
