# generated using pymatgen
data_Al2O3
_symmetry_space_group_name_H-M   'P 1'
_cell_length_a   3.05691742
_cell_length_b   5.24892220
_cell_length_c   25.73553700
_cell_angle_alpha   90.00000000
_cell_angle_beta   90.00000000
_cell_angle_gamma   109.31706606
_symmetry_Int_Tables_number   1
_chemical_formula_structural   Al2O3
_chemical_formula_sum   'Al4 O6'
_cell_volume   389.69260687
_cell_formula_units_Z   2
loop_
 _symmetry_equiv_pos_site_id
 _symmetry_equiv_pos_as_xyz
  1  'x, y, z'
loop_
 _atom_site_type_symbol
 _atom_site_label
 _atom_site_symmetry_multiplicity
 _atom_site_fract_x
 _atom_site_fract_y
 _atom_site_fract_z
 _atom_site_occupancy
  Al  Al1  1  0.372374  0.812633  0.465768  1
  Al  Al2  1  0.171928  0.771210  0.593081  1
  Al  Al3  1  0.372374  0.312633  0.534232  1
  Al  Al4  1  0.171928  0.271210  0.406919  1
  O  O5  1  0.940346  0.931056  0.435977  1
  O  O6  1  0.312551  0.962455  0.528221  1
  O  O7  1  0.706623  0.832611  0.619040  1
  O  O8  1  0.312551  0.462455  0.471779  1
  O  O9  1  0.940346  0.431056  0.564023  1
  O  O10  1  0.706623  0.332611  0.380960  1
