# generated using pymatgen
data_CaBiClO2
_symmetry_space_group_name_H-M   'P 1'
_cell_length_a   4.27924764
_cell_length_b   7.80574047
_cell_length_c   26.99743400
_cell_angle_alpha   90.00000000
_cell_angle_beta   90.00000000
_cell_angle_gamma   90.00000000
_symmetry_Int_Tables_number   1
_chemical_formula_structural   CaBiClO2
_chemical_formula_sum   'Ca2 Bi2 Cl2 O4'
_cell_volume   901.78709377
_cell_formula_units_Z   2
loop_
 _symmetry_equiv_pos_site_id
 _symmetry_equiv_pos_as_xyz
  1  'x, y, z'
loop_
 _atom_site_type_symbol
 _atom_site_label
 _atom_site_symmetry_multiplicity
 _atom_site_fract_x
 _atom_site_fract_y
 _atom_site_fract_z
 _atom_site_occupancy
  Ca  Ca1  1  0.250000  0.860717  0.471594  1
  Ca  Ca2  1  0.750000  0.139283  0.528406  1
  Bi  Bi3  1  0.250000  0.393281  0.453818  1
  Bi  Bi4  1  0.750000  0.606719  0.546182  1
  Cl  Cl5  1  0.250000  0.694807  0.388068  1
  Cl  Cl6  1  0.750000  0.305193  0.611932  1
  O  O7  1  0.750000  0.409809  0.486205  1
  O  O8  1  0.250000  0.590191  0.513795  1
  O  O9  1  0.750000  0.854318  0.506913  1
  O  O10  1  0.250000  0.145682  0.493087  1
