# generated using pymatgen
data_MgSb2O5
_symmetry_space_group_name_H-M   'P 1'
_cell_length_a   3.07295090
_cell_length_b   4.83750299
_cell_length_c   24.49981800
_cell_angle_alpha   90.00000000
_cell_angle_beta   90.00000000
_cell_angle_gamma   90.01551066
_symmetry_Int_Tables_number   1
_chemical_formula_structural   MgSb2O5
_chemical_formula_sum   'Mg1 Sb2 O5'
_cell_volume   364.19980534
_cell_formula_units_Z   1
loop_
 _symmetry_equiv_pos_site_id
 _symmetry_equiv_pos_as_xyz
  1  'x, y, z'
loop_
 _atom_site_type_symbol
 _atom_site_label
 _atom_site_symmetry_multiplicity
 _atom_site_fract_x
 _atom_site_fract_y
 _atom_site_fract_z
 _atom_site_occupancy
  Mg  Mg1  1  0.722503  0.767047  0.483139  1
  Sb  Sb2  1  0.224032  0.238867  0.388702  1
  Sb  Sb3  1  0.223386  0.294964  0.575258  1
  O  O4  1  0.222524  0.551467  0.517170  1
  O  O5  1  0.723958  0.481583  0.413262  1
  O  O6  1  0.723380  0.428036  0.622241  1
  O  O7  1  0.723179  0.039018  0.552006  1
  O  O8  1  0.222842  0.983480  0.448221  1
