# generated using pymatgen
data_V4S9Br4
_symmetry_space_group_name_H-M   'P 1'
_cell_length_a   10.84179367
_cell_length_b   10.84179367
_cell_length_c   25.02459000
_cell_angle_alpha   90.00000000
_cell_angle_beta   90.00000000
_cell_angle_gamma   90.00000000
_symmetry_Int_Tables_number   1
_chemical_formula_structural   V4S9Br4
_chemical_formula_sum   'V8 S18 Br8'
_cell_volume   2941.50266858
_cell_formula_units_Z   2
loop_
 _symmetry_equiv_pos_site_id
 _symmetry_equiv_pos_as_xyz
  1  'x, y, z'
loop_
 _atom_site_type_symbol
 _atom_site_label
 _atom_site_symmetry_multiplicity
 _atom_site_fract_x
 _atom_site_fract_y
 _atom_site_fract_z
 _atom_site_occupancy
  V  V1  1  0.362743  0.862743  0.536129  1
  V  V2  1  0.862743  0.362743  0.463871  1
  V  V3  1  0.637257  0.137257  0.536129  1
  V  V4  1  0.862743  0.637257  0.463871  1
  V  V5  1  0.137257  0.362743  0.463871  1
  V  V6  1  0.362743  0.137257  0.536129  1
  V  V7  1  0.637257  0.862743  0.536129  1
  V  V8  1  0.137257  0.637257  0.463871  1
  S  S9  1  0.000000  0.715092  0.397767  1
  S  S10  1  0.189739  0.000000  0.532357  1
  S  S11  1  0.810261  0.000000  0.532357  1
  S  S12  1  0.310261  0.500000  0.467643  1
  S  S13  1  0.215092  0.500000  0.397767  1
  S  S14  1  0.284908  0.000000  0.602233  1
  S  S15  1  0.500000  0.000000  0.493463  1
  S  S16  1  0.715092  0.000000  0.602233  1
  S  S17  1  0.500000  0.689739  0.532357  1
  S  S18  1  0.689739  0.500000  0.467643  1
  S  S19  1  0.500000  0.215092  0.602233  1
  S  S20  1  0.000000  0.189739  0.467643  1
  S  S21  1  0.000000  0.500000  0.506537  1
  S  S22  1  0.500000  0.310261  0.532357  1
  S  S23  1  0.500000  0.784908  0.602233  1
  S  S24  1  0.000000  0.810261  0.467643  1
  S  S25  1  0.784908  0.500000  0.397767  1
  S  S26  1  0.000000  0.284908  0.397767  1
  Br  Br27  1  0.696411  0.196411  0.437837  1
  Br  Br28  1  0.196411  0.303589  0.562163  1
  Br  Br29  1  0.303589  0.803589  0.437837  1
  Br  Br30  1  0.196411  0.696411  0.562163  1
  Br  Br31  1  0.803589  0.696411  0.562163  1
  Br  Br32  1  0.696411  0.803589  0.437837  1
  Br  Br33  1  0.303589  0.196411  0.437837  1
  Br  Br34  1  0.803589  0.303589  0.562163  1
