# generated using pymatgen
data_Ho2Te5O13
_symmetry_space_group_name_H-M   'P 1'
_cell_length_a   6.97677707
_cell_length_b   8.59302688
_cell_length_c   30.60901900
_cell_angle_alpha   88.79541012
_cell_angle_beta   89.69969739
_cell_angle_gamma   75.33481374
_symmetry_Int_Tables_number   1
_chemical_formula_structural   Ho2Te5O13
_chemical_formula_sum   'Ho4 Te10 O26'
_cell_volume   1774.88528824
_cell_formula_units_Z   2
loop_
 _symmetry_equiv_pos_site_id
 _symmetry_equiv_pos_as_xyz
  1  'x, y, z'
loop_
 _atom_site_type_symbol
 _atom_site_label
 _atom_site_symmetry_multiplicity
 _atom_site_fract_x
 _atom_site_fract_y
 _atom_site_fract_z
 _atom_site_occupancy
  Ho  Ho1  1  0.021345  0.725971  0.583905  1
  Ho  Ho2  1  0.978655  0.274029  0.416095  1
  Ho  Ho3  1  0.564611  0.529468  0.562933  1
  Ho  Ho4  1  0.435389  0.470532  0.437067  1
  Te  Te5  1  0.286710  0.882759  0.490213  1
  Te  Te6  1  0.713290  0.117241  0.509787  1
  Te  Te7  1  0.123673  0.810023  0.376150  1
  Te  Te8  1  0.876327  0.189977  0.623850  1
  Te  Te9  1  0.756569  0.613090  0.677962  1
  Te  Te10  1  0.243431  0.386910  0.322038  1
  Te  Te11  1  0.864080  0.653518  0.464462  1
  Te  Te12  1  0.135920  0.346482  0.535538  1
  Te  Te13  1  0.539747  0.091710  0.396795  1
  Te  Te14  1  0.460253  0.908290  0.603205  1
  O  O15  1  0.959018  0.978079  0.605252  1
  O  O16  1  0.040982  0.021921  0.394747  1
  O  O17  1  0.315476  0.742787  0.420635  1
  O  O18  1  0.684524  0.257213  0.579365  1
  O  O19  1  0.937677  0.181833  0.486866  1
  O  O20  1  0.062323  0.818167  0.513134  1
  O  O21  1  0.886041  0.510492  0.536723  1
  O  O22  1  0.113959  0.489508  0.463277  1
  O  O23  1  0.574729  0.816261  0.666226  1
  O  O24  1  0.425271  0.183739  0.333774  1
  O  O25  1  0.987709  0.642209  0.652432  1
  O  O26  1  0.012291  0.357791  0.347568  1
  O  O27  1  0.642047  0.006509  0.458476  1
  O  O28  1  0.357953  0.993491  0.541524  1
  O  O29  1  0.311708  0.224344  0.423442  1
  O  O30  1  0.688292  0.775656  0.576558  1
  O  O31  1  0.531696  0.324770  0.500509  1
  O  O32  1  0.468304  0.675230  0.499491  1
  O  O33  1  0.253882  0.493020  0.563662  1
  O  O34  1  0.746118  0.506980  0.436338  1
  O  O35  1  0.335419  0.738877  0.598190  1
  O  O36  1  0.664581  0.261123  0.401810  1
  O  O37  1  0.686364  0.484785  0.634259  1
  O  O38  1  0.313636  0.515215  0.365741  1
  O  O39  1  0.088271  0.264042  0.596418  1
  O  O40  1  0.911729  0.735958  0.403582  1
