# generated using pymatgen
data_MoN2
_symmetry_space_group_name_H-M   'P 1'
_cell_length_a   3.60617269
_cell_length_b   5.65203503
_cell_length_c   22.49649900
_cell_angle_alpha   90.00000000
_cell_angle_beta   90.00000000
_cell_angle_gamma   71.39660777
_symmetry_Int_Tables_number   1
_chemical_formula_structural   MoN2
_chemical_formula_sum   'Mo2 N4'
_cell_volume   434.57013464
_cell_formula_units_Z   2
loop_
 _symmetry_equiv_pos_site_id
 _symmetry_equiv_pos_as_xyz
  1  'x, y, z'
loop_
 _atom_site_type_symbol
 _atom_site_label
 _atom_site_symmetry_multiplicity
 _atom_site_fract_x
 _atom_site_fract_y
 _atom_site_fract_z
 _atom_site_occupancy
  Mo  Mo1  1  0.562465  0.875069  0.503519  1
  Mo  Mo2  1  0.822197  0.355607  0.496481  1
  N  N3  1  0.375661  0.248679  0.472016  1
  N  N4  1  0.009001  0.981997  0.527984  1
  N  N5  1  0.673777  0.652446  0.443366  1
  N  N6  1  0.710884  0.578230  0.556634  1
