# generated using pymatgen
data_BaLaI5
_symmetry_space_group_name_H-M   'P 1'
_cell_length_a   4.76147157
_cell_length_b   17.46220023
_cell_length_c   25.42469600
_cell_angle_alpha   90.00000000
_cell_angle_beta   90.00000000
_cell_angle_gamma   90.00000000
_symmetry_Int_Tables_number   1
_chemical_formula_structural   BaLaI5
_chemical_formula_sum   'Ba2 La2 I10'
_cell_volume   2113.95592453
_cell_formula_units_Z   2
loop_
 _symmetry_equiv_pos_site_id
 _symmetry_equiv_pos_as_xyz
  1  'x, y, z'
loop_
 _atom_site_type_symbol
 _atom_site_label
 _atom_site_symmetry_multiplicity
 _atom_site_fract_x
 _atom_site_fract_y
 _atom_site_fract_z
 _atom_site_occupancy
  Ba  Ba1  1  0.750000  0.082625  0.523348  1
  Ba  Ba2  1  0.250000  0.822603  0.476652  1
  La  La3  1  0.250000  0.322395  0.476975  1
  La  La4  1  0.750000  0.582832  0.523025  1
  I  I5  1  0.250000  0.214260  0.580021  1
  I  I6  1  0.750000  0.943119  0.425581  1
  I  I7  1  0.750000  0.394464  0.552392  1
  I  I8  1  0.250000  0.151985  0.430519  1
  I  I9  1  0.250000  0.569213  0.605973  1
  I  I10  1  0.750000  0.336015  0.394027  1
  I  I11  1  0.750000  0.753243  0.569481  1
  I  I12  1  0.250000  0.510764  0.447608  1
  I  I13  1  0.250000  0.962109  0.574419  1
  I  I14  1  0.750000  0.690968  0.419979  1
