# generated using pymatgen
data_Pt(NCl)4
_symmetry_space_group_name_H-M   'P 1'
_cell_length_a   5.98605335
_cell_length_b   5.98605335
_cell_length_c   24.77030074
_cell_angle_alpha   90.00000000
_cell_angle_beta   90.00000000
_cell_angle_gamma   90.00000000
_symmetry_Int_Tables_number   1
_chemical_formula_structural   Pt(NCl)4
_chemical_formula_sum   'Pt1 N4 Cl4'
_cell_volume   887.59009211
_cell_formula_units_Z   1
loop_
 _symmetry_equiv_pos_site_id
 _symmetry_equiv_pos_as_xyz
  1  'x, y, z'
loop_
 _atom_site_type_symbol
 _atom_site_label
 _atom_site_symmetry_multiplicity
 _atom_site_fract_x
 _atom_site_fract_y
 _atom_site_fract_z
 _atom_site_occupancy
  Pt  Pt1  1  0.000000  -0.000000  0.500000  1
  N  N2  1  0.229717  0.229717  0.500000  1
  N  N3  1  0.770284  0.770284  0.500000  1
  N  N4  1  0.770284  0.229717  0.500000  1
  N  N5  1  0.229717  0.770284  0.500000  1
  Cl  Cl6  1  0.000000  -0.000000  0.403310  1
  Cl  Cl7  1  0.000000  -0.000000  0.596690  1
  Cl  Cl8  1  0.000000  0.500000  0.500000  1
  Cl  Cl9  1  0.500000  0.000000  0.500000  1
