# generated using pymatgen
data_Sb(PO3)4
_symmetry_space_group_name_H-M   'P 1'
_cell_length_a   7.02059963
_cell_length_b   7.85480348
_cell_length_c   29.09646500
_cell_angle_alpha   90.00000000
_cell_angle_beta   90.00000000
_cell_angle_gamma   90.00000000
_symmetry_Int_Tables_number   1
_chemical_formula_structural   Sb(PO3)4
_chemical_formula_sum   'Sb2 P8 O24'
_cell_volume   1604.53708570
_cell_formula_units_Z   2
loop_
 _symmetry_equiv_pos_site_id
 _symmetry_equiv_pos_as_xyz
  1  'x, y, z'
loop_
 _atom_site_type_symbol
 _atom_site_label
 _atom_site_symmetry_multiplicity
 _atom_site_fract_x
 _atom_site_fract_y
 _atom_site_fract_z
 _atom_site_occupancy
  Sb  Sb1  1  0.263352  0.276060  0.443861  1
  Sb  Sb2  1  0.736648  0.776060  0.556139  1
  P  P3  1  0.486626  0.092111  0.606512  1
  P  P4  1  0.513374  0.592111  0.393488  1
  P  P5  1  0.408571  0.841962  0.469825  1
  P  P6  1  0.078333  0.977553  0.613684  1
  P  P7  1  0.054428  0.637853  0.471194  1
  P  P8  1  0.945572  0.137853  0.528806  1
  P  P9  1  0.921667  0.477553  0.386316  1
  P  P10  1  0.591429  0.341962  0.530175  1
  O  O11  1  0.500498  0.184807  0.555713  1
  O  O12  1  0.513706  0.335049  0.481490  1
  O  O13  1  0.489575  0.216144  0.643914  1
  O  O14  1  0.424836  0.005367  0.443480  1
  O  O15  1  0.299272  0.982158  0.598316  1
  O  O16  1  0.353044  0.456668  0.394800  1
  O  O17  1  0.182720  0.802526  0.475728  1
  O  O18  1  0.174915  0.484187  0.484036  1
  O  O19  1  0.040395  0.009304  0.661963  1
  O  O20  1  0.124131  0.155255  0.500299  1
  O  O21  1  0.999255  0.137613  0.581253  1
  O  O22  1  0.009847  0.815193  0.587723  1
  O  O23  1  0.990153  0.315193  0.412277  1
  O  O24  1  0.000745  0.637613  0.418747  1
  O  O25  1  0.875869  0.655255  0.499701  1
  O  O26  1  0.959605  0.509304  0.338037  1
  O  O27  1  0.825085  0.984187  0.515964  1
  O  O28  1  0.817280  0.302526  0.524272  1
  O  O29  1  0.646956  0.956668  0.605200  1
  O  O30  1  0.700728  0.482158  0.401684  1
  O  O31  1  0.575164  0.505367  0.556520  1
  O  O32  1  0.510425  0.716144  0.356086  1
  O  O33  1  0.486294  0.835049  0.518510  1
  O  O34  1  0.499502  0.684807  0.444287  1
