# generated using pymatgen
data_TiNCl
_symmetry_space_group_name_H-M   'P 1'
_cell_length_a   3.27178571
_cell_length_b   3.95088952
_cell_length_c   25.22466600
_cell_angle_alpha   90.00000000
_cell_angle_beta   90.00000000
_cell_angle_gamma   90.00000000
_symmetry_Int_Tables_number   1
_chemical_formula_structural   TiNCl
_chemical_formula_sum   'Ti2 N2 Cl2'
_cell_volume   326.06573377
_cell_formula_units_Z   2
loop_
 _symmetry_equiv_pos_site_id
 _symmetry_equiv_pos_as_xyz
  1  'x, y, z'
loop_
 _atom_site_type_symbol
 _atom_site_label
 _atom_site_symmetry_multiplicity
 _atom_site_fract_x
 _atom_site_fract_y
 _atom_site_fract_z
 _atom_site_occupancy
  Ti  Ti1  1  -0.000000  -0.000000  0.530867  1
  Ti  Ti2  1  0.500000  0.500000  0.469133  1
  N  N3  1  0.500000  0.000000  0.484815  1
  N  N4  1  -0.000000  0.500000  0.515185  1
  Cl  Cl5  1  0.000000  0.500000  0.396449  1
  Cl  Cl6  1  0.500000  0.000000  0.603551  1
