# generated using pymatgen
data_P2Pb3O8
_symmetry_space_group_name_H-M   'P 1'
_cell_length_a   5.80199844
_cell_length_b   9.50988854
_cell_length_c   24.90793700
_cell_angle_alpha   90.00000000
_cell_angle_beta   90.00000000
_cell_angle_gamma   90.00000000
_symmetry_Int_Tables_number   1
_chemical_formula_structural   P2Pb3O8
_chemical_formula_sum   'P4 Pb6 O16'
_cell_volume   1374.32926075
_cell_formula_units_Z   2
loop_
 _symmetry_equiv_pos_site_id
 _symmetry_equiv_pos_as_xyz
  1  'x, y, z'
loop_
 _atom_site_type_symbol
 _atom_site_label
 _atom_site_symmetry_multiplicity
 _atom_site_fract_x
 _atom_site_fract_y
 _atom_site_fract_z
 _atom_site_occupancy
  P  P1  1  0.246067  0.717263  0.446475  1
  P  P2  1  0.246067  0.388543  0.553525  1
  P  P3  1  0.753933  0.888543  0.553525  1
  P  P4  1  0.753933  0.217263  0.446475  1
  Pb  Pb5  1  0.706058  0.552903  0.500000  1
  Pb  Pb6  1  0.293942  0.052903  0.500000  1
  Pb  Pb7  1  0.191394  0.699952  0.595971  1
  Pb  Pb8  1  0.191394  0.405854  0.404029  1
  Pb  Pb9  1  0.808606  0.905854  0.404029  1
  Pb  Pb10  1  0.808606  0.199952  0.595971  1
  O  O11  1  0.276568  0.728694  0.508515  1
  O  O12  1  0.276568  0.377111  0.491485  1
  O  O13  1  0.723432  0.877111  0.491485  1
  O  O14  1  0.723432  0.228694  0.508515  1
  O  O15  1  0.456982  0.642978  0.421730  1
  O  O16  1  0.456982  0.462828  0.578270  1
  O  O17  1  0.543018  0.962828  0.578270  1
  O  O18  1  0.543018  0.142978  0.421730  1
  O  O19  1  0.027382  0.628225  0.431863  1
  O  O20  1  0.027382  0.477581  0.568137  1
  O  O21  1  0.972618  0.977581  0.568137  1
  O  O22  1  0.972618  0.128225  0.431863  1
  O  O23  1  0.208985  0.868177  0.424032  1
  O  O24  1  0.208985  0.237629  0.575968  1
  O  O25  1  0.791015  0.737629  0.575968  1
  O  O26  1  0.791015  0.368177  0.424032  1
