# generated using pymatgen
data_Fe3Se4
_symmetry_space_group_name_H-M   'P 1'
_cell_length_a   3.46539462
_cell_length_b   3.49905332
_cell_length_c   28.87095135
_cell_angle_alpha   89.65193232
_cell_angle_beta   89.99999996
_cell_angle_gamma   119.68229150
_symmetry_Int_Tables_number   1
_chemical_formula_structural   Fe3Se4
_chemical_formula_sum   'Fe3 Se4'
_cell_volume   304.13461479
_cell_formula_units_Z   1
loop_
 _symmetry_equiv_pos_site_id
 _symmetry_equiv_pos_as_xyz
  1  'x, y, z'
loop_
 _atom_site_type_symbol
 _atom_site_label
 _atom_site_symmetry_multiplicity
 _atom_site_fract_x
 _atom_site_fract_y
 _atom_site_fract_z
 _atom_site_occupancy
  Fe  Fe1  1  0.003921  0.007843  0.396116  1
  Fe  Fe2  1  -0.000000  -0.000000  0.500000  1
  Fe  Fe3  1  0.996079  0.992157  0.603884  1
  Se  Se4  1  0.333739  0.667480  0.446796  1
  Se  Se5  1  0.666261  0.332520  0.553204  1
  Se  Se6  1  0.673762  0.347524  0.351269  1
  Se  Se7  1  0.326238  0.652476  0.648731  1
