# generated using pymatgen
data_Tl3BSe3
_symmetry_space_group_name_H-M   'P 1'
_cell_length_a   5.64172070
_cell_length_b   10.15677473
_cell_length_c   26.24495674
_cell_angle_alpha   90.00000000
_cell_angle_beta   91.03012388
_cell_angle_gamma   90.00000000
_symmetry_Int_Tables_number   1
_chemical_formula_structural   Tl3BSe3
_chemical_formula_sum   'Tl6 B2 Se6'
_cell_volume   1503.63722205
_cell_formula_units_Z   2
loop_
 _symmetry_equiv_pos_site_id
 _symmetry_equiv_pos_as_xyz
  1  'x, y, z'
loop_
 _atom_site_type_symbol
 _atom_site_label
 _atom_site_symmetry_multiplicity
 _atom_site_fract_x
 _atom_site_fract_y
 _atom_site_fract_z
 _atom_site_occupancy
  Tl  Tl1  1  0.064995  0.056682  0.541315  1
  Tl  Tl2  1  0.552323  0.556682  0.458685  1
  Tl  Tl3  1  0.552323  0.943318  0.458685  1
  Tl  Tl4  1  0.064995  0.443318  0.541315  1
  Tl  Tl5  1  0.411243  0.250000  0.371367  1
  Tl  Tl6  1  0.206075  0.750000  0.628633  1
  B  B7  1  0.890889  0.250000  0.439573  1
  B  B8  1  0.726428  0.750000  0.560427  1
  Se  Se9  1  0.600976  0.580001  0.583204  1
  Se  Se10  1  0.016341  0.080001  0.416796  1
  Se  Se11  1  0.016341  0.419999  0.416796  1
  Se  Se12  1  0.600976  0.919999  0.583204  1
  Se  Se13  1  0.990974  0.750000  0.512223  1
  Se  Se14  1  0.626343  0.250000  0.487777  1
