# generated using pymatgen
data_Cr(GaS2)2
_symmetry_space_group_name_H-M   'P 1'
_cell_length_a   3.68613283
_cell_length_b   3.70110769
_cell_length_c   29.06802600
_cell_angle_alpha   90.00000000
_cell_angle_beta   90.00000000
_cell_angle_gamma   60.22150289
_symmetry_Int_Tables_number   1
_chemical_formula_structural   Cr(GaS2)2
_chemical_formula_sum   'Cr1 Ga2 S4'
_cell_volume   344.20240715
_cell_formula_units_Z   1
loop_
 _symmetry_equiv_pos_site_id
 _symmetry_equiv_pos_as_xyz
  1  'x, y, z'
loop_
 _atom_site_type_symbol
 _atom_site_label
 _atom_site_symmetry_multiplicity
 _atom_site_fract_x
 _atom_site_fract_y
 _atom_site_fract_z
 _atom_site_occupancy
  Cr  Cr1  1  0.995926  0.013199  0.499965  1
  Ga  Ga2  1  0.332540  0.336554  0.378451  1
  Ga  Ga3  1  0.659808  0.688822  0.621562  1
  S  S4  1  0.330181  0.343945  0.456610  1
  S  S5  1  0.661988  0.681816  0.543382  1
  S  S6  1  0.326682  0.354510  0.656250  1
  S  S7  1  0.665697  0.670809  0.343780  1
