# generated using pymatgen
data_LiVF5
_symmetry_space_group_name_H-M   'P 1'
_cell_length_a   6.71554519
_cell_length_b   6.71554519
_cell_length_c   22.27520430
_cell_angle_alpha   90.00000000
_cell_angle_beta   90.00000000
_cell_angle_gamma   90.00000000
_symmetry_Int_Tables_number   1
_chemical_formula_structural   LiVF5
_chemical_formula_sum   'Li2 V2 F10'
_cell_volume   1004.57935249
_cell_formula_units_Z   2
loop_
 _symmetry_equiv_pos_site_id
 _symmetry_equiv_pos_as_xyz
  1  'x, y, z'
loop_
 _atom_site_type_symbol
 _atom_site_label
 _atom_site_symmetry_multiplicity
 _atom_site_fract_x
 _atom_site_fract_y
 _atom_site_fract_z
 _atom_site_occupancy
  Li  Li1  1  -0.000000  -0.000000  0.500000  1
  Li  Li2  1  0.500000  0.500000  0.500000  1
  V  V3  1  0.500000  -0.000000  0.477211  1
  V  V4  1  -0.000000  0.500000  0.522789  1
  F  F5  1  0.500000  -0.000000  0.555231  1
  F  F6  1  0.763964  0.961613  0.455391  1
  F  F7  1  0.038387  0.763964  0.544609  1
  F  F8  1  0.461613  0.736036  0.455391  1
  F  F9  1  0.736036  0.538387  0.544609  1
  F  F10  1  0.000000  0.500000  0.444769  1
  F  F11  1  0.263964  0.461613  0.544609  1
  F  F12  1  0.538387  0.263964  0.455391  1
  F  F13  1  0.961613  0.236036  0.544609  1
  F  F14  1  0.236036  0.038387  0.455391  1
