# generated using pymatgen
data_LiFeP
_symmetry_space_group_name_H-M   'P 1'
_cell_length_a   3.65810173
_cell_length_b   3.65810173
_cell_length_c   24.08282500
_cell_angle_alpha   90.00000000
_cell_angle_beta   90.00000000
_cell_angle_gamma   90.00000000
_symmetry_Int_Tables_number   1
_chemical_formula_structural   LiFeP
_chemical_formula_sum   'Li2 Fe2 P2'
_cell_volume   322.26933840
_cell_formula_units_Z   2
loop_
 _symmetry_equiv_pos_site_id
 _symmetry_equiv_pos_as_xyz
  1  'x, y, z'
loop_
 _atom_site_type_symbol
 _atom_site_label
 _atom_site_symmetry_multiplicity
 _atom_site_fract_x
 _atom_site_fract_y
 _atom_site_fract_z
 _atom_site_occupancy
  Li  Li1  1  0.500000  0.000000  0.583718  1
  Li  Li2  1  -0.000000  0.500000  0.416282  1
  Fe  Fe3  1  0.000000  -0.000000  0.500000  1
  Fe  Fe4  1  0.500000  0.500000  0.500000  1
  P  P5  1  -0.000000  0.500000  0.552331  1
  P  P6  1  0.500000  0.000000  0.447669  1
