# generated using pymatgen
data_CaPH5O6
_symmetry_space_group_name_H-M   'P 1'
_cell_length_a   5.71101294
_cell_length_b   5.90861279
_cell_length_c   27.95592700
_cell_angle_alpha   90.00000000
_cell_angle_beta   90.00000000
_cell_angle_gamma   114.83297907
_symmetry_Int_Tables_number   1
_chemical_formula_structural   CaPH5O6
_chemical_formula_sum   'Ca2 P2 H10 O12'
_cell_volume   856.12343078
_cell_formula_units_Z   2
loop_
 _symmetry_equiv_pos_site_id
 _symmetry_equiv_pos_as_xyz
  1  'x, y, z'
loop_
 _atom_site_type_symbol
 _atom_site_label
 _atom_site_symmetry_multiplicity
 _atom_site_fract_x
 _atom_site_fract_y
 _atom_site_fract_z
 _atom_site_occupancy
  Ca  Ca1  1  0.757332  0.497254  0.542866  1
  Ca  Ca2  1  0.757332  0.997254  0.457134  1
  P  P3  1  0.258603  0.017068  0.541780  1
  P  P4  1  0.258603  0.517068  0.458220  1
  H  H5  1  0.769198  0.900802  0.610377  1
  H  H6  1  0.769198  0.400802  0.389623  1
  H  H7  1  0.547876  0.646603  0.627225  1
  H  H8  1  0.547876  0.146603  0.372775  1
  H  H9  1  0.902031  0.333311  0.629757  1
  H  H10  1  0.902031  0.833311  0.370243  1
  H  H11  1  0.347762  0.693744  0.543390  1
  H  H12  1  0.347762  0.193744  0.456610  1
  H  H13  1  0.068022  0.252903  0.592659  1
  H  H14  1  0.068022  0.752903  0.407341  1
  O  O15  1  0.323834  0.220396  0.579793  1
  O  O16  1  0.472159  0.107140  0.502958  1
  O  O17  1  0.888624  0.745237  0.400380  1
  O  O18  1  0.888624  0.245237  0.599620  1
  O  O19  1  0.724366  0.220463  0.384975  1
  O  O20  1  0.724366  0.720463  0.615025  1
  O  O21  1  0.987200  0.931099  0.520698  1
  O  O22  1  0.987200  0.431099  0.479302  1
  O  O23  1  0.261298  0.769383  0.566039  1
  O  O24  1  0.261298  0.269383  0.433961  1
  O  O25  1  0.472159  0.607140  0.497042  1
  O  O26  1  0.323834  0.720396  0.420207  1
