# generated using pymatgen
data_As2O3
_symmetry_space_group_name_H-M   'P 1'
_cell_length_a   4.64032768
_cell_length_b   8.19932977
_cell_length_c   22.19541300
_cell_angle_alpha   90.00000000
_cell_angle_beta   90.00000000
_cell_angle_gamma   90.00000000
_symmetry_Int_Tables_number   1
_chemical_formula_structural   As2O3
_chemical_formula_sum   'As4 O6'
_cell_volume   844.48168270
_cell_formula_units_Z   2
loop_
 _symmetry_equiv_pos_site_id
 _symmetry_equiv_pos_as_xyz
  1  'x, y, z'
loop_
 _atom_site_type_symbol
 _atom_site_label
 _atom_site_symmetry_multiplicity
 _atom_site_fract_x
 _atom_site_fract_y
 _atom_site_fract_z
 _atom_site_occupancy
  As  As1  1  0.816264  0.479222  0.450245  1
  As  As2  1  0.316264  0.397154  0.549755  1
  As  As3  1  0.363772  0.059316  0.478269  1
  As  As4  1  0.863772  0.817060  0.521731  1
  O  O5  1  0.875407  0.696079  0.451826  1
  O  O6  1  0.375407  0.180297  0.548174  1
  O  O7  1  0.673765  0.467550  0.527633  1
  O  O8  1  0.173765  0.408825  0.472367  1
  O  O9  1  0.485587  0.874526  0.516672  1
  O  O10  1  0.985587  0.001850  0.483328  1
