# generated using pymatgen
data_BiOF
_symmetry_space_group_name_H-M   'P 1'
_cell_length_a   7.54617922
_cell_length_b   10.25726137
_cell_length_c   28.71605300
_cell_angle_alpha   90.00000000
_cell_angle_beta   90.00000000
_cell_angle_gamma   90.00000000
_symmetry_Int_Tables_number   1
_chemical_formula_structural   BiOF
_chemical_formula_sum   'Bi12 O12 F12'
_cell_volume   2222.71245823
_cell_formula_units_Z   12
loop_
 _symmetry_equiv_pos_site_id
 _symmetry_equiv_pos_as_xyz
  1  'x, y, z'
loop_
 _atom_site_type_symbol
 _atom_site_label
 _atom_site_symmetry_multiplicity
 _atom_site_fract_x
 _atom_site_fract_y
 _atom_site_fract_z
 _atom_site_occupancy
  Bi  Bi1  1  0.346224  0.504842  0.436238  1
  Bi  Bi2  1  0.459464  0.786113  0.634312  1
  Bi  Bi3  1  0.409988  0.828831  0.512551  1
  Bi  Bi4  1  0.701399  0.328831  0.487449  1
  Bi  Bi5  1  0.651923  0.286113  0.365688  1
  Bi  Bi6  1  0.765163  0.004842  0.563763  1
  Bi  Bi7  1  0.846224  0.995158  0.436238  1
  Bi  Bi8  1  0.959464  0.713887  0.634312  1
  Bi  Bi9  1  0.909988  0.671169  0.512551  1
  Bi  Bi10  1  0.201399  0.171169  0.487449  1
  Bi  Bi11  1  0.151923  0.213887  0.365688  1
  Bi  Bi12  1  0.265163  0.495158  0.563763  1
  O  O13  1  0.427963  0.399727  0.499399  1
  O  O14  1  0.426625  0.682669  0.567023  1
  O  O15  1  0.621174  0.431569  0.421708  1
  O  O16  1  0.490213  0.931569  0.578292  1
  O  O17  1  0.684762  0.182669  0.432977  1
  O  O18  1  0.683424  0.899727  0.500601  1
  O  O19  1  0.927963  0.100273  0.499399  1
  O  O20  1  0.926625  0.817331  0.567023  1
  O  O21  1  0.121174  0.068431  0.421708  1
  O  O22  1  0.990213  0.568431  0.578292  1
  O  O23  1  0.184762  0.317331  0.432977  1
  O  O24  1  0.183424  0.600273  0.500601  1
  F  F25  1  0.434193  0.126094  0.363860  1
  F  F26  1  0.572203  0.171021  0.530688  1
  F  F27  1  0.361270  0.390210  0.354398  1
  F  F28  1  0.750117  0.890210  0.645602  1
  F  F29  1  0.539183  0.671021  0.469312  1
  F  F30  1  0.677194  0.626094  0.636140  1
  F  F31  1  0.934193  0.373906  0.363860  1
  F  F32  1  0.072203  0.328979  0.530688  1
  F  F33  1  0.861270  0.109790  0.354398  1
  F  F34  1  0.250117  0.609790  0.645602  1
  F  F35  1  0.039183  0.828979  0.469312  1
  F  F36  1  0.177194  0.873906  0.636140  1
