# generated using pymatgen
data_Na3InCl6
_symmetry_space_group_name_H-M   'P 1'
_cell_length_a   6.97613465
_cell_length_b   6.97613454
_cell_length_c   23.04931304
_cell_angle_alpha   90.00000000
_cell_angle_beta   90.00000000
_cell_angle_gamma   120.00000049
_symmetry_Int_Tables_number   1
_chemical_formula_structural   Na3InCl6
_chemical_formula_sum   'Na3 In1 Cl6'
_cell_volume   971.44522498
_cell_formula_units_Z   1
loop_
 _symmetry_equiv_pos_site_id
 _symmetry_equiv_pos_as_xyz
  1  'x, y, z'
loop_
 _atom_site_type_symbol
 _atom_site_label
 _atom_site_symmetry_multiplicity
 _atom_site_fract_x
 _atom_site_fract_y
 _atom_site_fract_z
 _atom_site_occupancy
  Na  Na1  1  -0.000000  0.000000  0.412425  1
  Na  Na2  1  -0.000000  0.000000  0.587575  1
  Na  Na3  1  0.666667  0.333333  0.500000  1
  In  In4  1  0.333333  0.666667  0.500000  1
  Cl  Cl5  1  0.619917  0.644128  0.435420  1
  Cl  Cl6  1  0.355872  0.380083  0.564580  1
  Cl  Cl7  1  0.619917  0.975790  0.564580  1
  Cl  Cl8  1  0.355872  0.975790  0.435420  1
  Cl  Cl9  1  0.024210  0.380083  0.435420  1
  Cl  Cl10  1  0.024210  0.644128  0.564580  1
