# generated using pymatgen
data_MnOF
_symmetry_space_group_name_H-M   'P 1'
_cell_length_a   2.99914730
_cell_length_b   6.23950809
_cell_length_c   22.35783842
_cell_angle_alpha   90.00000000
_cell_angle_beta   90.00000000
_cell_angle_gamma   90.00000000
_symmetry_Int_Tables_number   1
_chemical_formula_structural   MnOF
_chemical_formula_sum   'Mn2 O2 F2'
_cell_volume   418.38678781
_cell_formula_units_Z   2
loop_
 _symmetry_equiv_pos_site_id
 _symmetry_equiv_pos_as_xyz
  1  'x, y, z'
loop_
 _atom_site_type_symbol
 _atom_site_label
 _atom_site_symmetry_multiplicity
 _atom_site_fract_x
 _atom_site_fract_y
 _atom_site_fract_z
 _atom_site_occupancy
  Mn  Mn1  1  -0.000000  -0.000000  0.500000  1
  Mn  Mn2  1  0.500000  0.500000  0.500000  1
  O  O3  1  0.000000  0.693166  0.500000  1
  O  O4  1  -0.000000  0.306834  0.500000  1
  F  F5  1  0.500000  0.000000  0.559370  1
  F  F6  1  0.500000  -0.000000  0.440630  1
