# generated using pymatgen
data_Y2Cl3
_symmetry_space_group_name_H-M   'P 1'
_cell_length_a   3.79373309
_cell_length_b   9.51703533
_cell_length_c   25.25674100
_cell_angle_alpha   90.00000000
_cell_angle_beta   90.00000000
_cell_angle_gamma   78.50322619
_symmetry_Int_Tables_number   1
_chemical_formula_structural   Y2Cl3
_chemical_formula_sum   'Y4 Cl6'
_cell_volume   893.60058866
_cell_formula_units_Z   2
loop_
 _symmetry_equiv_pos_site_id
 _symmetry_equiv_pos_as_xyz
  1  'x, y, z'
loop_
 _atom_site_type_symbol
 _atom_site_label
 _atom_site_symmetry_multiplicity
 _atom_site_fract_x
 _atom_site_fract_y
 _atom_site_fract_z
 _atom_site_occupancy
  Y  Y1  1  0.602874  0.794251  0.503899  1
  Y  Y2  1  0.889809  0.220383  0.496101  1
  Y  Y3  1  0.249861  0.500277  0.564428  1
  Y  Y4  1  0.242822  0.514356  0.435572  1
  Cl  Cl5  1  0.658612  0.682776  0.605065  1
  Cl  Cl6  1  0.834071  0.331858  0.394935  1
  Cl  Cl7  1  0.845573  0.308853  0.599577  1
  Cl  Cl8  1  0.647110  0.705780  0.400423  1
  Cl  Cl9  1  0.477280  0.045439  0.444324  1
  Cl  Cl10  1  0.015403  0.969194  0.555676  1
