# generated using pymatgen
data_CaMg(SiO3)2
_symmetry_space_group_name_H-M   'P 1'
_cell_length_a   5.40842467
_cell_length_b   9.11107068
_cell_length_c   31.52700200
_cell_angle_alpha   90.00000000
_cell_angle_beta   90.00000000
_cell_angle_gamma   90.00000000
_symmetry_Int_Tables_number   1
_chemical_formula_structural   CaMg(SiO3)2
_chemical_formula_sum   'Ca4 Mg4 Si8 O24'
_cell_volume   1553.54155735
_cell_formula_units_Z   4
loop_
 _symmetry_equiv_pos_site_id
 _symmetry_equiv_pos_as_xyz
  1  'x, y, z'
loop_
 _atom_site_type_symbol
 _atom_site_label
 _atom_site_symmetry_multiplicity
 _atom_site_fract_x
 _atom_site_fract_y
 _atom_site_fract_z
 _atom_site_occupancy
  Ca  Ca1  1  0.135459  0.475264  0.579592  1
  Ca  Ca2  1  0.364541  0.975264  0.420408  1
  Ca  Ca3  1  0.864541  0.524736  0.420408  1
  Ca  Ca4  1  0.635459  0.024736  0.579592  1
  Mg  Mg5  1  0.376112  0.336698  0.430720  1
  Mg  Mg6  1  0.123888  0.836698  0.569280  1
  Mg  Mg7  1  0.623888  0.663302  0.569280  1
  Mg  Mg8  1  0.876112  0.163302  0.430720  1
  Si  Si9  1  0.571613  0.286676  0.353339  1
  Si  Si10  1  0.928387  0.786676  0.646661  1
  Si  Si11  1  0.428387  0.713324  0.646661  1
  Si  Si12  1  0.071613  0.213324  0.353339  1
  Si  Si13  1  0.287081  0.660423  0.482882  1
  Si  Si14  1  0.212919  0.160423  0.517118  1
  Si  Si15  1  0.712919  0.339577  0.517118  1
  Si  Si16  1  0.787081  0.839577  0.482882  1
  O  O17  1  0.231893  0.504918  0.461469  1
  O  O18  1  0.268107  0.004918  0.538531  1
  O  O19  1  0.768107  0.495082  0.538531  1
  O  O20  1  0.731893  0.995082  0.461469  1
  O  O21  1  0.321145  0.249370  0.325420  1
  O  O22  1  0.178855  0.749370  0.674580  1
  O  O23  1  0.678855  0.750630  0.674580  1
  O  O24  1  0.821145  0.250630  0.325420  1
  O  O25  1  0.063210  0.054810  0.378301  1
  O  O26  1  0.436790  0.554810  0.621699  1
  O  O27  1  0.936790  0.945190  0.621699  1
  O  O28  1  0.563210  0.445190  0.378301  1
  O  O29  1  0.061769  0.327500  0.395048  1
  O  O30  1  0.438231  0.827500  0.604952  1
  O  O31  1  0.938231  0.672500  0.604952  1
  O  O32  1  0.561769  0.172500  0.395048  1
  O  O33  1  0.207610  0.164630  0.465766  1
  O  O34  1  0.292390  0.664630  0.534234  1
  O  O35  1  0.792390  0.835370  0.534234  1
  O  O36  1  0.707610  0.335370  0.465766  1
  O  O37  1  0.056622  0.770533  0.463266  1
  O  O38  1  0.443378  0.270533  0.536734  1
  O  O39  1  0.943378  0.229467  0.536734  1
  O  O40  1  0.556622  0.729467  0.463266  1
