# generated using pymatgen
data_Zn(InS2)2
_symmetry_space_group_name_H-M   'P 1'
_cell_length_a   3.90313512
_cell_length_b   6.73792487
_cell_length_c   29.49486000
_cell_angle_alpha   90.00000000
_cell_angle_beta   90.00000000
_cell_angle_gamma   90.00000000
_symmetry_Int_Tables_number   1
_chemical_formula_structural   Zn(InS2)2
_chemical_formula_sum   'Zn2 In4 S8'
_cell_volume   775.68624326
_cell_formula_units_Z   2
loop_
 _symmetry_equiv_pos_site_id
 _symmetry_equiv_pos_as_xyz
  1  'x, y, z'
loop_
 _atom_site_type_symbol
 _atom_site_label
 _atom_site_symmetry_multiplicity
 _atom_site_fract_x
 _atom_site_fract_y
 _atom_site_fract_z
 _atom_site_occupancy
  Zn  Zn1  1  0.000000  0.830715  0.371346  1
  Zn  Zn2  1  -0.000000  0.169285  0.628654  1
  In  In3  1  -0.000000  0.500000  0.500000  1
  In  In4  1  0.500000  0.319115  0.366092  1
  In  In5  1  0.500000  0.000000  0.500000  1
  In  In6  1  0.500000  0.680885  0.633908  1
  S  S7  1  0.000000  0.490723  0.661954  1
  S  S8  1  0.500000  0.027292  0.658493  1
  S  S9  1  0.500000  0.333901  0.452645  1
  S  S10  1  0.000000  0.168762  0.547239  1
  S  S11  1  -0.000000  0.831238  0.452761  1
  S  S12  1  0.500000  0.666099  0.547355  1
  S  S13  1  0.500000  0.972708  0.341507  1
  S  S14  1  0.000000  0.509277  0.338046  1
