# generated using pymatgen
data_Li2Cr(PO4)2
_symmetry_space_group_name_H-M   'P 1'
_cell_length_a   4.84546253
_cell_length_b   4.85706548
_cell_length_c   29.65857500
_cell_angle_alpha   89.92303286
_cell_angle_beta   89.91554370
_cell_angle_gamma   60.03860032
_symmetry_Int_Tables_number   1
_chemical_formula_structural   Li2Cr(PO4)2
_chemical_formula_sum   'Li2 Cr1 P2 O8'
_cell_volume   604.72555964
_cell_formula_units_Z   1
loop_
 _symmetry_equiv_pos_site_id
 _symmetry_equiv_pos_as_xyz
  1  'x, y, z'
loop_
 _atom_site_type_symbol
 _atom_site_label
 _atom_site_symmetry_multiplicity
 _atom_site_fract_x
 _atom_site_fract_y
 _atom_site_fract_z
 _atom_site_occupancy
  Li  Li1  1  0.666562  0.666446  0.338946  1
  Li  Li2  1  0.333230  0.333581  0.661016  1
  Cr  Cr3  1  0.000010  0.999971  0.499986  1
  P  P4  1  0.667580  0.665544  0.446150  1
  P  P5  1  0.332466  0.334389  0.553862  1
  O  O6  1  0.706970  0.345268  0.462312  1
  O  O7  1  0.666339  0.666625  0.394174  1
  O  O8  1  0.345439  0.947333  0.462276  1
  O  O9  1  0.946977  0.708219  0.462260  1
  O  O10  1  0.053041  0.291729  0.537748  1
  O  O11  1  0.654630  0.052577  0.537738  1
  O  O12  1  0.333661  0.333343  0.605837  1
  O  O13  1  0.293092  0.654676  0.537695  1
