# generated using pymatgen
data_Ta3I7
_symmetry_space_group_name_H-M   'P 1'
_cell_length_a   12.68673854
_cell_length_b   15.03083129
_cell_length_c   26.69322488
_cell_angle_alpha   90.00000000
_cell_angle_beta   90.00000000
_cell_angle_gamma   90.00000000
_symmetry_Int_Tables_number   1
_chemical_formula_structural   Ta3I7
_chemical_formula_sum   'Ta12 I28'
_cell_volume   5090.19048790
_cell_formula_units_Z   4
loop_
 _symmetry_equiv_pos_site_id
 _symmetry_equiv_pos_as_xyz
  1  'x, y, z'
loop_
 _atom_site_type_symbol
 _atom_site_label
 _atom_site_symmetry_multiplicity
 _atom_site_fract_x
 _atom_site_fract_y
 _atom_site_fract_z
 _atom_site_occupancy
  Ta  Ta1  1  0.430768  0.500000  0.558068  1
  Ta  Ta2  1  0.930768  -0.000000  0.441932  1
  Ta  Ta3  1  0.069232  -0.000000  0.558068  1
  Ta  Ta4  1  0.569232  0.500000  0.441932  1
  Ta  Ta5  1  0.606490  0.396055  0.528735  1
  Ta  Ta6  1  0.106490  0.103945  0.471265  1
  Ta  Ta7  1  0.893510  0.103945  0.528735  1
  Ta  Ta8  1  0.393510  0.396055  0.471265  1
  Ta  Ta9  1  0.393510  0.603945  0.471265  1
  Ta  Ta10  1  0.893510  0.896055  0.528735  1
  Ta  Ta11  1  0.106490  0.896055  0.471265  1
  Ta  Ta12  1  0.606490  0.603945  0.528735  1
  I  I13  1  0.750000  0.250000  0.575791  1
  I  I14  1  0.250000  0.250000  0.424209  1
  I  I15  1  0.250000  0.750000  0.424209  1
  I  I16  1  0.750000  0.750000  0.575791  1
  I  I17  1  0.519148  0.374427  0.625735  1
  I  I18  1  0.019148  0.125573  0.374265  1
  I  I19  1  0.980852  0.125573  0.625735  1
  I  I20  1  0.480852  0.374427  0.374265  1
  I  I21  1  0.480852  0.625573  0.374265  1
  I  I22  1  0.980852  0.874427  0.625735  1
  I  I23  1  0.019148  0.874427  0.374265  1
  I  I24  1  0.519148  0.625573  0.625735  1
  I  I25  1  0.500000  0.760391  0.500000  1
  I  I26  1  -0.000000  0.739609  0.500000  1
  I  I27  1  0.500000  0.239609  0.500000  1
  I  I28  1  -0.000000  0.260391  0.500000  1
  I  I29  1  0.767397  0.500000  0.572198  1
  I  I30  1  0.267397  0.000000  0.427802  1
  I  I31  1  0.732603  -0.000000  0.572198  1
  I  I32  1  0.232603  0.500000  0.427802  1
  I  I33  1  0.761706  0.123389  0.444423  1
  I  I34  1  0.261706  0.376611  0.555577  1
  I  I35  1  0.738294  0.376611  0.444423  1
  I  I36  1  0.238294  0.123389  0.555577  1
  I  I37  1  0.238294  0.876611  0.555577  1
  I  I38  1  0.738294  0.623389  0.444423  1
  I  I39  1  0.261706  0.623389  0.555577  1
  I  I40  1  0.761706  0.876611  0.444423  1
