# generated using pymatgen
data_SbTeClO3
_symmetry_space_group_name_H-M   'P 1'
_cell_length_a   5.47585061
_cell_length_b   7.24845116
_cell_length_c   24.06814500
_cell_angle_alpha   90.00000000
_cell_angle_beta   90.00000000
_cell_angle_gamma   90.00000000
_symmetry_Int_Tables_number   1
_chemical_formula_structural   SbTeClO3
_chemical_formula_sum   'Sb2 Te2 Cl2 O6'
_cell_volume   955.29922983
_cell_formula_units_Z   2
loop_
 _symmetry_equiv_pos_site_id
 _symmetry_equiv_pos_as_xyz
  1  'x, y, z'
loop_
 _atom_site_type_symbol
 _atom_site_label
 _atom_site_symmetry_multiplicity
 _atom_site_fract_x
 _atom_site_fract_y
 _atom_site_fract_z
 _atom_site_occupancy
  Sb  Sb1  1  0.500000  0.915422  0.504546  1
  Sb  Sb2  1  -0.000000  0.415422  0.495454  1
  Te  Te3  1  -0.000000  0.821188  0.583245  1
  Te  Te4  1  0.500000  0.321188  0.416755  1
  Cl  Cl5  1  0.000000  0.103083  0.416428  1
  Cl  Cl6  1  0.500000  0.603083  0.583572  1
  O  O7  1  0.244373  0.992793  0.560590  1
  O  O8  1  0.744373  0.492793  0.439410  1
  O  O9  1  0.000000  0.695181  0.514121  1
  O  O10  1  0.755627  0.992793  0.560590  1
  O  O11  1  0.500000  0.195181  0.485879  1
  O  O12  1  0.255627  0.492793  0.439410  1
