# generated using pymatgen
data_VOF3
_symmetry_space_group_name_H-M   'P 1'
_cell_length_a   4.93036370
_cell_length_b   5.67367390
_cell_length_c   23.07856400
_cell_angle_alpha   90.00000000
_cell_angle_beta   90.00000000
_cell_angle_gamma   93.43204112
_symmetry_Int_Tables_number   1
_chemical_formula_structural   VOF3
_chemical_formula_sum   'V2 O2 F6'
_cell_volume   644.42518706
_cell_formula_units_Z   2
loop_
 _symmetry_equiv_pos_site_id
 _symmetry_equiv_pos_as_xyz
  1  'x, y, z'
loop_
 _atom_site_type_symbol
 _atom_site_label
 _atom_site_symmetry_multiplicity
 _atom_site_fract_x
 _atom_site_fract_y
 _atom_site_fract_z
 _atom_site_occupancy
  V  V1  1  0.461142  0.363722  0.505457  1
  V  V2  1  0.961142  0.863722  0.494543  1
  O  O3  1  0.264856  0.559894  0.529529  1
  O  O4  1  0.764856  0.059894  0.470471  1
  F  F5  1  0.176437  0.807362  0.435174  1
  F  F6  1  0.246402  0.074650  0.527123  1
  F  F7  1  0.348126  0.309871  0.433593  1
  F  F8  1  0.676437  0.307362  0.564826  1
  F  F9  1  0.746402  0.574650  0.472877  1
  F  F10  1  0.848126  0.809871  0.566407  1
