# generated using pymatgen
data_Sc2C
_symmetry_space_group_name_H-M   'P 1'
_cell_length_a   3.32429822
_cell_length_b   3.32429743
_cell_length_c   21.98922132
_cell_angle_alpha   90.00000000
_cell_angle_beta   90.00000000
_cell_angle_gamma   119.99999795
_symmetry_Int_Tables_number   1
_chemical_formula_structural   Sc2C
_chemical_formula_sum   'Sc2 C1'
_cell_volume   210.44583818
_cell_formula_units_Z   1
loop_
 _symmetry_equiv_pos_site_id
 _symmetry_equiv_pos_as_xyz
  1  'x, y, z'
loop_
 _atom_site_type_symbol
 _atom_site_label
 _atom_site_symmetry_multiplicity
 _atom_site_fract_x
 _atom_site_fract_y
 _atom_site_fract_z
 _atom_site_occupancy
  Sc  Sc1  1  0.666667  0.333333  0.445277  1
  Sc  Sc2  1  0.333333  0.666667  0.554723  1
  C  C3  1  0.000000  0.000000  0.500000  1
