# generated using pymatgen
data_Zn2SnN2
_symmetry_space_group_name_H-M   'P 1'
_cell_length_a   3.42632978
_cell_length_b   6.19042376
_cell_length_c   25.66132600
_cell_angle_alpha   90.00000000
_cell_angle_beta   90.00000000
_cell_angle_gamma   106.06599873
_symmetry_Int_Tables_number   1
_chemical_formula_structural   Zn2SnN2
_chemical_formula_sum   'Zn4 Sn2 N4'
_cell_volume   523.02989348
_cell_formula_units_Z   2
loop_
 _symmetry_equiv_pos_site_id
 _symmetry_equiv_pos_as_xyz
  1  'x, y, z'
loop_
 _atom_site_type_symbol
 _atom_site_label
 _atom_site_symmetry_multiplicity
 _atom_site_fract_x
 _atom_site_fract_y
 _atom_site_fract_z
 _atom_site_occupancy
  Zn  Zn1  1  0.650544  0.301087  0.494235  1
  Zn  Zn2  1  0.349456  0.698913  0.505765  1
  Zn  Zn3  1  0.990941  0.981882  0.431951  1
  Zn  Zn4  1  0.009059  0.018118  0.568049  1
  Sn  Sn5  1  0.259608  0.519217  0.388720  1
  Sn  Sn6  1  0.740392  0.480783  0.611280  1
  N  N7  1  0.152596  0.305190  0.454847  1
  N  N8  1  0.847404  0.694810  0.545153  1
  N  N9  1  0.590284  0.180569  0.568007  1
  N  N10  1  0.409716  0.819431  0.431993  1
