# generated using pymatgen
data_LuSBr
_symmetry_space_group_name_H-M   'P 1'
_cell_length_a   3.92727816
_cell_length_b   5.23565603
_cell_length_c   26.10241900
_cell_angle_alpha   90.00000000
_cell_angle_beta   90.00000000
_cell_angle_gamma   90.00000000
_symmetry_Int_Tables_number   1
_chemical_formula_structural   LuSBr
_chemical_formula_sum   'Lu2 S2 Br2'
_cell_volume   536.71474402
_cell_formula_units_Z   2
loop_
 _symmetry_equiv_pos_site_id
 _symmetry_equiv_pos_as_xyz
  1  'x, y, z'
loop_
 _atom_site_type_symbol
 _atom_site_label
 _atom_site_symmetry_multiplicity
 _atom_site_fract_x
 _atom_site_fract_y
 _atom_site_fract_z
 _atom_site_occupancy
  Lu  Lu1  1  0.000000  0.000000  0.542792  1
  Lu  Lu2  1  0.500000  0.500000  0.457208  1
  S  S3  1  0.500000  -0.000000  0.472626  1
  S  S4  1  -0.000000  0.500000  0.527374  1
  Br  Br5  1  -0.000000  0.500000  0.383307  1
  Br  Br6  1  0.500000  -0.000000  0.616693  1
