# generated using pymatgen
data_SrTcN3
_symmetry_space_group_name_H-M   'P 1'
_cell_length_a   4.13618972
_cell_length_b   5.67085666
_cell_length_c   29.37390000
_cell_angle_alpha   90.00000000
_cell_angle_beta   90.00000000
_cell_angle_gamma   90.00000000
_symmetry_Int_Tables_number   1
_chemical_formula_structural   SrTcN3
_chemical_formula_sum   'Sr2 Tc2 N6'
_cell_volume   688.98653242
_cell_formula_units_Z   2
loop_
 _symmetry_equiv_pos_site_id
 _symmetry_equiv_pos_as_xyz
  1  'x, y, z'
loop_
 _atom_site_type_symbol
 _atom_site_label
 _atom_site_symmetry_multiplicity
 _atom_site_fract_x
 _atom_site_fract_y
 _atom_site_fract_z
 _atom_site_occupancy
  Sr  Sr1  1  0.000000  0.750000  0.348701  1
  Sr  Sr2  1  0.000000  0.250000  0.651299  1
  Tc  Tc3  1  0.000000  0.250000  0.538249  1
  Tc  Tc4  1  -0.000000  0.750000  0.461751  1
  N  N5  1  0.654566  0.751050  0.417569  1
  N  N6  1  0.937426  0.500000  0.500000  1
  N  N7  1  0.654567  0.248950  0.582431  1
  N  N8  1  0.345434  0.748950  0.417569  1
  N  N9  1  0.062575  -0.000000  0.500000  1
  N  N10  1  0.345434  0.251050  0.582431  1
