# generated using pymatgen
data_BaThBr6
_symmetry_space_group_name_H-M   'P 1'
_cell_length_a   4.49472109
_cell_length_b   9.50112529
_cell_length_c   27.21566163
_cell_angle_alpha   90.00000000
_cell_angle_beta   90.00000000
_cell_angle_gamma   90.00000000
_symmetry_Int_Tables_number   1
_chemical_formula_structural   BaThBr6
_chemical_formula_sum   'Ba2 Th2 Br12'
_cell_volume   1162.24233205
_cell_formula_units_Z   2
loop_
 _symmetry_equiv_pos_site_id
 _symmetry_equiv_pos_as_xyz
  1  'x, y, z'
loop_
 _atom_site_type_symbol
 _atom_site_label
 _atom_site_symmetry_multiplicity
 _atom_site_fract_x
 _atom_site_fract_y
 _atom_site_fract_z
 _atom_site_occupancy
  Ba  Ba1  1  0.000000  0.250000  0.604990  1
  Ba  Ba2  1  0.000000  0.750000  0.395010  1
  Th  Th3  1  0.500000  0.250000  0.398768  1
  Th  Th4  1  0.500000  0.750000  0.601232  1
  Br  Br5  1  0.500000  0.537340  0.345962  1
  Br  Br6  1  0.500000  0.250000  0.517082  1
  Br  Br7  1  -0.000000  0.750000  0.674819  1
  Br  Br8  1  -0.000000  0.250000  0.325181  1
  Br  Br9  1  0.500000  0.750000  0.482918  1
  Br  Br10  1  -0.000000  0.929343  0.559230  1
  Br  Br11  1  0.500000  0.962660  0.345962  1
  Br  Br12  1  0.500000  0.462660  0.654038  1
  Br  Br13  1  -0.000000  0.070657  0.440770  1
  Br  Br14  1  0.000000  0.429343  0.440770  1
  Br  Br15  1  0.500000  0.037340  0.654038  1
  Br  Br16  1  0.000000  0.570657  0.559230  1
