# generated using pymatgen
data_TcS2
_symmetry_space_group_name_H-M   'P 1'
_cell_length_a   6.41231211
_cell_length_b   6.51350700
_cell_length_c   23.58717199
_cell_angle_alpha   90.00260612
_cell_angle_beta   90.01432512
_cell_angle_gamma   118.87707981
_symmetry_Int_Tables_number   1
_chemical_formula_structural   TcS2
_chemical_formula_sum   'Tc4 S8'
_cell_volume   862.66028190
_cell_formula_units_Z   4
loop_
 _symmetry_equiv_pos_site_id
 _symmetry_equiv_pos_as_xyz
  1  'x, y, z'
loop_
 _atom_site_type_symbol
 _atom_site_label
 _atom_site_symmetry_multiplicity
 _atom_site_fract_x
 _atom_site_fract_y
 _atom_site_fract_z
 _atom_site_occupancy
  Tc  Tc1  1  0.947371  0.095203  0.499385  1
  Tc  Tc2  1  0.924500  0.667894  0.500615  1
  Tc  Tc3  1  0.374476  0.068981  0.497696  1
  Tc  Tc4  1  0.497396  0.694117  0.502304  1
  S  S5  1  0.753248  0.286682  0.550576  1
  S  S6  1  0.118623  0.476416  0.449424  1
  S  S7  1  0.288797  0.315071  0.557348  1
  S  S8  1  0.583074  0.448027  0.442652  1
  S  S9  1  0.790362  0.821838  0.573767  1
  S  S10  1  0.081509  0.941260  0.426233  1
  S  S11  1  0.253935  0.780097  0.566622  1
  S  S12  1  0.617936  0.983001  0.433378  1
