# generated using pymatgen
data_LaTe2Se
_symmetry_space_group_name_H-M   'P 1'
_cell_length_a   4.33990789
_cell_length_b   4.34133705
_cell_length_c   29.03586304
_cell_angle_alpha   90.00000000
_cell_angle_beta   90.00000000
_cell_angle_gamma   90.00000000
_symmetry_Int_Tables_number   1
_chemical_formula_structural   LaTe2Se
_chemical_formula_sum   'La2 Te4 Se2'
_cell_volume   547.06478022
_cell_formula_units_Z   2
loop_
 _symmetry_equiv_pos_site_id
 _symmetry_equiv_pos_as_xyz
  1  'x, y, z'
loop_
 _atom_site_type_symbol
 _atom_site_label
 _atom_site_symmetry_multiplicity
 _atom_site_fract_x
 _atom_site_fract_y
 _atom_site_fract_z
 _atom_site_occupancy
  La  La1  1  0.500000  0.000000  0.564013  1
  La  La2  1  -0.000000  0.500000  0.435987  1
  Te  Te3  1  0.000000  0.000000  0.656456  1
  Te  Te4  1  0.500000  0.500000  0.343544  1
  Te  Te5  1  0.500000  0.500000  0.656437  1
  Te  Te6  1  0.000000  -0.000000  0.343563  1
  Se  Se7  1  -0.000000  0.500000  0.541088  1
  Se  Se8  1  0.500000  -0.000000  0.458912  1
