# generated using pymatgen
data_AuBrO2
_symmetry_space_group_name_H-M   'P 1'
_cell_length_a   3.86323975
_cell_length_b   7.50041503
_cell_length_c   23.03494300
_cell_angle_alpha   90.00000000
_cell_angle_beta   90.00000000
_cell_angle_gamma   90.00000000
_symmetry_Int_Tables_number   1
_chemical_formula_structural   AuBrO2
_chemical_formula_sum   'Au2 Br2 O4'
_cell_volume   667.45823909
_cell_formula_units_Z   2
loop_
 _symmetry_equiv_pos_site_id
 _symmetry_equiv_pos_as_xyz
  1  'x, y, z'
loop_
 _atom_site_type_symbol
 _atom_site_label
 _atom_site_symmetry_multiplicity
 _atom_site_fract_x
 _atom_site_fract_y
 _atom_site_fract_z
 _atom_site_occupancy
  Au  Au1  1  0.500000  0.237473  0.500000  1
  Au  Au2  1  0.000000  0.762527  0.500000  1
  Br  Br3  1  0.250000  0.000000  0.432097  1
  Br  Br4  1  0.750000  0.000000  0.567903  1
  O  O5  1  0.707758  0.585978  0.550421  1
  O  O6  1  0.792242  0.414022  0.550421  1
  O  O7  1  0.292242  0.585978  0.449579  1
  O  O8  1  0.207758  0.414022  0.449579  1
