# generated using pymatgen
data_LiFeF5
_symmetry_space_group_name_H-M   'P 1'
_cell_length_a   6.97945955
_cell_length_b   9.90324569
_cell_length_c   23.88476200
_cell_angle_alpha   90.00000000
_cell_angle_beta   90.00000000
_cell_angle_gamma   90.00000000
_symmetry_Int_Tables_number   1
_chemical_formula_structural   LiFeF5
_chemical_formula_sum   'Li4 Fe4 F20'
_cell_volume   1650.89809476
_cell_formula_units_Z   4
loop_
 _symmetry_equiv_pos_site_id
 _symmetry_equiv_pos_as_xyz
  1  'x, y, z'
loop_
 _atom_site_type_symbol
 _atom_site_label
 _atom_site_symmetry_multiplicity
 _atom_site_fract_x
 _atom_site_fract_y
 _atom_site_fract_z
 _atom_site_occupancy
  Li  Li1  1  0.250000  0.500000  0.444615  1
  Li  Li2  1  0.250000  0.000000  0.444615  1
  Li  Li3  1  0.750000  0.500000  0.555385  1
  Li  Li4  1  0.750000  0.000000  0.555385  1
  Fe  Fe5  1  0.062673  0.750000  0.542386  1
  Fe  Fe6  1  0.437327  0.250000  0.542386  1
  Fe  Fe7  1  0.562673  0.750000  0.457614  1
  Fe  Fe8  1  0.937327  0.250000  0.457614  1
  F  F9  1  0.608970  0.623159  0.510202  1
  F  F10  1  0.608970  0.876841  0.510202  1
  F  F11  1  0.891030  0.123159  0.510202  1
  F  F12  1  0.891030  0.376841  0.510202  1
  F  F13  1  0.939320  0.623066  0.582937  1
  F  F14  1  0.560680  0.123066  0.582937  1
  F  F15  1  0.939320  0.876934  0.582937  1
  F  F16  1  0.560680  0.376934  0.582937  1
  F  F17  1  0.203393  0.250000  0.574159  1
  F  F18  1  0.296607  0.750000  0.574159  1
  F  F19  1  0.796607  0.750000  0.425841  1
  F  F20  1  0.703393  0.250000  0.425841  1
  F  F21  1  0.060680  0.123066  0.417063  1
  F  F22  1  0.060680  0.376934  0.417063  1
  F  F23  1  0.439320  0.623066  0.417063  1
  F  F24  1  0.439320  0.876934  0.417063  1
  F  F25  1  0.108970  0.623159  0.489798  1
  F  F26  1  0.108970  0.876841  0.489798  1
  F  F27  1  0.391030  0.123159  0.489798  1
  F  F28  1  0.391030  0.376841  0.489798  1
