# generated using pymatgen
data_Ca3(HO3)2
_symmetry_space_group_name_H-M   'P 1'
_cell_length_a   4.38729447
_cell_length_b   5.28691991
_cell_length_c   26.34730000
_cell_angle_alpha   90.00000000
_cell_angle_beta   90.00000000
_cell_angle_gamma   114.51425991
_symmetry_Int_Tables_number   1
_chemical_formula_structural   Ca3(HO3)2
_chemical_formula_sum   'Ca3 H2 O6'
_cell_volume   556.04413775
_cell_formula_units_Z   1
loop_
 _symmetry_equiv_pos_site_id
 _symmetry_equiv_pos_as_xyz
  1  'x, y, z'
loop_
 _atom_site_type_symbol
 _atom_site_label
 _atom_site_symmetry_multiplicity
 _atom_site_fract_x
 _atom_site_fract_y
 _atom_site_fract_z
 _atom_site_occupancy
  Ca  Ca1  1  -0.000000  -0.000000  0.500000  1
  Ca  Ca2  1  0.731158  0.462315  0.559931  1
  Ca  Ca3  1  0.268842  0.537685  0.440069  1
  H  H4  1  0.996500  0.992999  0.378722  1
  H  H5  1  0.003500  0.007001  0.621278  1
  O  O6  1  0.617422  0.234843  0.484137  1
  O  O7  1  0.035834  0.071667  0.412648  1
  O  O8  1  0.964166  0.928333  0.587352  1
  O  O9  1  0.764982  0.529963  0.464233  1
  O  O10  1  0.382578  0.765157  0.515863  1
  O  O11  1  0.235018  0.470037  0.535767  1
