# generated using pymatgen
data_Nb(SCl)2
_symmetry_space_group_name_H-M   'P 1'
_cell_length_a   6.30513896
_cell_length_b   6.40980119
_cell_length_c   24.07775000
_cell_angle_alpha   90.00000000
_cell_angle_beta   90.00000000
_cell_angle_gamma   60.53868728
_symmetry_Int_Tables_number   1
_chemical_formula_structural   Nb(SCl)2
_chemical_formula_sum   'Nb2 S4 Cl4'
_cell_volume   847.26190121
_cell_formula_units_Z   2
loop_
 _symmetry_equiv_pos_site_id
 _symmetry_equiv_pos_as_xyz
  1  'x, y, z'
loop_
 _atom_site_type_symbol
 _atom_site_label
 _atom_site_symmetry_multiplicity
 _atom_site_fract_x
 _atom_site_fract_y
 _atom_site_fract_z
 _atom_site_occupancy
  Nb  Nb1  1  0.129870  0.740260  0.500000  1
  Nb  Nb2  1  0.870130  0.259740  0.500000  1
  S  S3  1  0.026879  0.000000  0.585237  1
  S  S4  1  0.973121  -0.000000  0.414763  1
  S  S5  1  0.709066  -0.000000  0.462511  1
  S  S6  1  0.290934  -0.000000  0.537489  1
  Cl  Cl7  1  0.896996  0.586345  0.560485  1
  Cl  Cl8  1  0.516659  0.586345  0.439515  1
  Cl  Cl9  1  0.103004  0.413655  0.439515  1
  Cl  Cl10  1  0.483341  0.413655  0.560485  1
