# generated using pymatgen
data_USe3
_symmetry_space_group_name_H-M   'P 1'
_cell_length_a   4.02449044
_cell_length_b   5.71446967
_cell_length_c   26.30134600
_cell_angle_alpha   90.00000000
_cell_angle_beta   90.00000000
_cell_angle_gamma   90.00000000
_symmetry_Int_Tables_number   1
_chemical_formula_structural   USe3
_chemical_formula_sum   'U2 Se6'
_cell_volume   604.87384612
_cell_formula_units_Z   2
loop_
 _symmetry_equiv_pos_site_id
 _symmetry_equiv_pos_as_xyz
  1  'x, y, z'
loop_
 _atom_site_type_symbol
 _atom_site_label
 _atom_site_symmetry_multiplicity
 _atom_site_fract_x
 _atom_site_fract_y
 _atom_site_fract_z
 _atom_site_occupancy
  U  U1  1  0.250000  0.215449  0.553723  1
  U  U2  1  0.750000  0.715488  0.446277  1
  Se  Se3  1  0.250000  0.507159  0.380119  1
  Se  Se4  1  0.750000  0.423778  0.619881  1
  Se  Se5  1  0.750000  0.215644  0.475188  1
  Se  Se6  1  0.250000  0.715293  0.524812  1
  Se  Se7  1  0.750000  0.005258  0.619452  1
  Se  Se8  1  0.250000  0.925679  0.380548  1
