# generated using pymatgen
data_Tl2GeSe3
_symmetry_space_group_name_H-M   'P 1'
_cell_length_a   6.84212923
_cell_length_b   8.76782160
_cell_length_c   24.38927000
_cell_angle_alpha   90.00000000
_cell_angle_beta   90.00000000
_cell_angle_gamma   87.01650032
_symmetry_Int_Tables_number   1
_chemical_formula_structural   Tl2GeSe3
_chemical_formula_sum   'Tl4 Ge2 Se6'
_cell_volume   1461.14299949
_cell_formula_units_Z   2
loop_
 _symmetry_equiv_pos_site_id
 _symmetry_equiv_pos_as_xyz
  1  'x, y, z'
loop_
 _atom_site_type_symbol
 _atom_site_label
 _atom_site_symmetry_multiplicity
 _atom_site_fract_x
 _atom_site_fract_y
 _atom_site_fract_z
 _atom_site_occupancy
  Tl  Tl1  1  0.512817  0.876425  0.443897  1
  Tl  Tl2  1  0.042806  0.958120  0.556103  1
  Tl  Tl3  1  0.184884  0.365721  0.410367  1
  Tl  Tl4  1  0.370738  0.468824  0.589633  1
  Ge  Ge5  1  0.847410  0.585260  0.516311  1
  Ge  Ge6  1  0.708213  0.249286  0.483689  1
  Se  Se7  1  0.907258  0.063768  0.439255  1
  Se  Se8  1  0.648364  0.770777  0.560745  1
  Se  Se9  1  0.167341  0.652008  0.495176  1
  Se  Se10  1  0.388282  0.182538  0.504824  1
  Se  Se11  1  0.852212  0.346351  0.568428  1
  Se  Se12  1  0.703411  0.488194  0.431572  1
