# generated using pymatgen
data_Ca(TiS2)8
_symmetry_space_group_name_H-M   'P 1'
_cell_length_a   6.82772880
_cell_length_b   6.82772853
_cell_length_c   29.85003300
_cell_angle_alpha   90.00000000
_cell_angle_beta   90.00000000
_cell_angle_gamma   119.99999645
_symmetry_Int_Tables_number   1
_chemical_formula_structural   Ca(TiS2)8
_chemical_formula_sum   'Ca1 Ti8 S16'
_cell_volume   1205.11355292
_cell_formula_units_Z   1
loop_
 _symmetry_equiv_pos_site_id
 _symmetry_equiv_pos_as_xyz
  1  'x, y, z'
loop_
 _atom_site_type_symbol
 _atom_site_label
 _atom_site_symmetry_multiplicity
 _atom_site_fract_x
 _atom_site_fract_y
 _atom_site_fract_z
 _atom_site_occupancy
  Ca  Ca1  1  -0.000000  0.000000  0.500000  1
  Ti  Ti2  1  0.995955  0.497977  0.615498  1
  Ti  Ti3  1  0.004045  0.502023  0.384502  1
  Ti  Ti4  1  0.502023  0.004045  0.615498  1
  Ti  Ti5  1  0.497977  0.995955  0.384502  1
  Ti  Ti6  1  0.502023  0.497977  0.615498  1
  Ti  Ti7  1  0.497977  0.502023  0.384502  1
  Ti  Ti8  1  -0.000000  0.000000  0.617586  1
  Ti  Ti9  1  -0.000000  0.000000  0.382414  1
  S  S10  1  0.832950  0.665898  0.433327  1
  S  S11  1  0.832847  0.665694  0.663280  1
  S  S12  1  0.334102  0.167050  0.433327  1
  S  S13  1  0.334306  0.167153  0.663280  1
  S  S14  1  0.333333  0.666667  0.433489  1
  S  S15  1  0.333333  0.666667  0.661834  1
  S  S16  1  0.832950  0.167050  0.433327  1
  S  S17  1  0.832847  0.167153  0.663280  1
  S  S18  1  0.167050  0.832950  0.566673  1
  S  S19  1  0.167153  0.832847  0.336720  1
  S  S20  1  0.666667  0.333333  0.566511  1
  S  S21  1  0.666667  0.333333  0.338166  1
  S  S22  1  0.665898  0.832950  0.566673  1
  S  S23  1  0.665694  0.832847  0.336720  1
  S  S24  1  0.167050  0.334102  0.566673  1
  S  S25  1  0.167153  0.334306  0.336720  1
