# generated using pymatgen
data_Li2Cu2F7
_symmetry_space_group_name_H-M   'P 1'
_cell_length_a   3.83092044
_cell_length_b   5.23034158
_cell_length_c   29.46927700
_cell_angle_alpha   90.19068534
_cell_angle_beta   80.78678972
_cell_angle_gamma   90.33138922
_symmetry_Int_Tables_number   1
_chemical_formula_structural   Li2Cu2F7
_chemical_formula_sum   'Li4 Cu4 F14'
_cell_volume   582.84757420
_cell_formula_units_Z   2
loop_
 _symmetry_equiv_pos_site_id
 _symmetry_equiv_pos_as_xyz
  1  'x, y, z'
loop_
 _atom_site_type_symbol
 _atom_site_label
 _atom_site_symmetry_multiplicity
 _atom_site_fract_x
 _atom_site_fract_y
 _atom_site_fract_z
 _atom_site_occupancy
  Li  Li1  1  0.447678  0.994535  0.435408  1
  Li  Li2  1  0.255762  0.076400  0.681557  1
  Li  Li3  1  0.745876  0.563544  0.318069  1
  Li  Li4  1  0.551982  0.493919  0.564704  1
  Cu  Cu5  1  0.042181  0.054308  0.543759  1
  Cu  Cu6  1  0.943826  0.589034  0.641146  1
  Cu  Cu7  1  0.056580  0.086623  0.358922  1
  Cu  Cu8  1  0.954836  0.554141  0.456348  1
  F  F9  1  0.874061  0.700404  0.517127  1
  F  F10  1  0.018219  0.398197  0.582992  1
  F  F11  1  0.999354  0.891578  0.601678  1
  F  F12  1  0.861587  0.284445  0.676038  1
  F  F13  1  0.546297  0.085990  0.366857  1
  F  F14  1  0.460550  0.629306  0.454057  1
  F  F15  1  0.926742  0.798329  0.692993  1
  F  F16  1  0.085819  0.294498  0.306915  1
  F  F17  1  0.537573  0.128136  0.546023  1
  F  F18  1  0.454241  0.584712  0.632912  1
  F  F19  1  0.131103  0.781216  0.324060  1
  F  F20  1  0.980853  0.898404  0.416935  1
  F  F21  1  0.000431  0.390782  0.398414  1
  F  F22  1  0.124452  0.200669  0.483086  1
