# generated using pymatgen
data_SnBrF
_symmetry_space_group_name_H-M   'P 1'
_cell_length_a   4.01710375
_cell_length_b   4.01710375
_cell_length_c   25.94460435
_cell_angle_alpha   90.00000000
_cell_angle_beta   90.00000000
_cell_angle_gamma   90.00000000
_symmetry_Int_Tables_number   1
_chemical_formula_structural   SnBrF
_chemical_formula_sum   'Sn2 Br2 F2'
_cell_volume   418.67125960
_cell_formula_units_Z   2
loop_
 _symmetry_equiv_pos_site_id
 _symmetry_equiv_pos_as_xyz
  1  'x, y, z'
loop_
 _atom_site_type_symbol
 _atom_site_label
 _atom_site_symmetry_multiplicity
 _atom_site_fract_x
 _atom_site_fract_y
 _atom_site_fract_z
 _atom_site_occupancy
  Sn  Sn1  1  0.500000  0.000000  0.557543  1
  Sn  Sn2  1  0.000000  0.500000  0.442457  1
  Br  Br3  1  0.000000  0.500000  0.609286  1
  Br  Br4  1  0.500000  -0.000000  0.390714  1
  F  F5  1  0.500000  0.500000  0.500000  1
  F  F6  1  -0.000000  -0.000000  0.500000  1
