# generated using pymatgen
data_TmTe3
_symmetry_space_group_name_H-M   'P 1'
_cell_length_a   4.32989211
_cell_length_b   4.33280929
_cell_length_c   29.01673300
_cell_angle_alpha   90.00000000
_cell_angle_beta   90.00000000
_cell_angle_gamma   90.00000000
_symmetry_Int_Tables_number   1
_chemical_formula_structural   TmTe3
_chemical_formula_sum   'Tm2 Te6'
_cell_volume   544.37122707
_cell_formula_units_Z   2
loop_
 _symmetry_equiv_pos_site_id
 _symmetry_equiv_pos_as_xyz
  1  'x, y, z'
loop_
 _atom_site_type_symbol
 _atom_site_label
 _atom_site_symmetry_multiplicity
 _atom_site_fract_x
 _atom_site_fract_y
 _atom_site_fract_z
 _atom_site_occupancy
  Tm  Tm1  1  0.500000  -0.000000  0.570425  1
  Tm  Tm2  1  -0.000000  0.500000  0.429575  1
  Te  Te3  1  0.000000  -0.000000  0.344602  1
  Te  Te4  1  0.500000  0.500000  0.655398  1
  Te  Te5  1  0.000000  0.000000  0.655380  1
  Te  Te6  1  0.500000  0.500000  0.344620  1
  Te  Te7  1  0.500000  -0.000000  0.461360  1
  Te  Te8  1  0.000000  0.500000  0.538640  1
