# generated using pymatgen
data_Li2Cu2F7
_symmetry_space_group_name_H-M   'P 1'
_cell_length_a   5.27370625
_cell_length_b   6.28611062
_cell_length_c   26.60538900
_cell_angle_alpha   90.00000000
_cell_angle_beta   90.00000000
_cell_angle_gamma   94.99707191
_symmetry_Int_Tables_number   1
_chemical_formula_structural   Li2Cu2F7
_chemical_formula_sum   'Li4 Cu4 F14'
_cell_volume   878.64559371
_cell_formula_units_Z   2
loop_
 _symmetry_equiv_pos_site_id
 _symmetry_equiv_pos_as_xyz
  1  'x, y, z'
loop_
 _atom_site_type_symbol
 _atom_site_label
 _atom_site_symmetry_multiplicity
 _atom_site_fract_x
 _atom_site_fract_y
 _atom_site_fract_z
 _atom_site_occupancy
  Li  Li1  1  0.323127  0.068012  0.566803  1
  Li  Li2  1  0.834165  0.923053  0.541405  1
  Li  Li3  1  0.778492  0.568709  0.458595  1
  Li  Li4  1  0.289530  0.423750  0.433197  1
  Cu  Cu5  1  0.147171  0.629476  0.600469  1
  Cu  Cu6  1  0.620923  0.464122  0.560111  1
  Cu  Cu7  1  0.991734  0.027640  0.439889  1
  Cu  Cu8  1  0.465486  0.862286  0.399531  1
  F  F9  1  0.051041  0.904745  0.602349  1
  F  F10  1  0.298700  0.367269  0.595432  1
  F  F11  1  0.826168  0.501464  0.620992  1
  F  F12  1  0.474681  0.744806  0.575727  1
  F  F13  1  0.670181  0.170663  0.556146  1
  F  F14  1  0.149932  0.028992  0.504290  1
  F  F15  1  0.913892  0.603868  0.527828  1
  F  F16  1  0.698765  0.887894  0.472172  1
  F  F17  1  0.462725  0.462770  0.495710  1
  F  F18  1  0.942476  0.321099  0.443854  1
  F  F19  1  0.137975  0.746956  0.424273  1
  F  F20  1  0.786489  0.990298  0.379008  1
  F  F21  1  0.313957  0.124493  0.404568  1
  F  F22  1  0.561616  0.587017  0.397651  1
