# generated using pymatgen
data_Sr2CoClO3
_symmetry_space_group_name_H-M   'P 1'
_cell_length_a   3.83620054
_cell_length_b   3.83620054
_cell_length_c   32.58309500
_cell_angle_alpha   90.00000000
_cell_angle_beta   90.00000000
_cell_angle_gamma   90.00000000
_symmetry_Int_Tables_number   1
_chemical_formula_structural   Sr2CoClO3
_chemical_formula_sum   'Sr4 Co2 Cl2 O6'
_cell_volume   479.50698608
_cell_formula_units_Z   2
loop_
 _symmetry_equiv_pos_site_id
 _symmetry_equiv_pos_as_xyz
  1  'x, y, z'
loop_
 _atom_site_type_symbol
 _atom_site_label
 _atom_site_symmetry_multiplicity
 _atom_site_fract_x
 _atom_site_fract_y
 _atom_site_fract_z
 _atom_site_occupancy
  Sr  Sr1  1  0.500000  -0.000000  0.457842  1
  Sr  Sr2  1  -0.000000  0.500000  0.542158  1
  Sr  Sr3  1  0.500000  -0.000000  0.345599  1
  Sr  Sr4  1  -0.000000  0.500000  0.654401  1
  Co  Co5  1  0.000000  0.500000  0.405130  1
  Co  Co6  1  0.500000  0.000000  0.594870  1
  Cl  Cl7  1  -0.000000  0.500000  0.306441  1
  Cl  Cl8  1  0.500000  -0.000000  0.693559  1
  O  O9  1  0.500000  -0.000000  0.533829  1
  O  O10  1  -0.000000  0.500000  0.466171  1
  O  O11  1  0.500000  0.500000  0.603103  1
  O  O12  1  0.500000  0.500000  0.396897  1
  O  O13  1  0.000000  0.000000  0.396897  1
  O  O14  1  0.000000  -0.000000  0.603103  1
