# generated using pymatgen
data_Yb3(SF2)2
_symmetry_space_group_name_H-M   'P 1'
_cell_length_a   3.79534992
_cell_length_b   3.79534992
_cell_length_c   30.70741000
_cell_angle_alpha   90.00000000
_cell_angle_beta   90.00000000
_cell_angle_gamma   90.00000000
_symmetry_Int_Tables_number   1
_chemical_formula_structural   Yb3(SF2)2
_chemical_formula_sum   'Yb3 S2 F4'
_cell_volume   442.33044585
_cell_formula_units_Z   1
loop_
 _symmetry_equiv_pos_site_id
 _symmetry_equiv_pos_as_xyz
  1  'x, y, z'
loop_
 _atom_site_type_symbol
 _atom_site_label
 _atom_site_symmetry_multiplicity
 _atom_site_fract_x
 _atom_site_fract_y
 _atom_site_fract_z
 _atom_site_occupancy
  Yb  Yb1  1  0.000000  0.000000  0.583029  1
  Yb  Yb2  1  0.500000  0.500000  0.500000  1
  Yb  Yb3  1  -0.000000  0.000000  0.416971  1
  S  S4  1  0.000000  -0.000000  0.665359  1
  S  S5  1  -0.000000  0.000000  0.334641  1
  F  F6  1  -0.000000  0.500000  0.543320  1
  F  F7  1  0.500000  -0.000000  0.543320  1
  F  F8  1  -0.000000  0.500000  0.456680  1
  F  F9  1  0.500000  -0.000000  0.456680  1
