# generated using pymatgen
data_Ba2Bi3O7
_symmetry_space_group_name_H-M   'P 1'
_cell_length_a   4.37864538
_cell_length_b   4.39112850
_cell_length_c   28.75605308
_cell_angle_alpha   90.00388402
_cell_angle_beta   90.00233219
_cell_angle_gamma   90.00475915
_symmetry_Int_Tables_number   1
_chemical_formula_structural   Ba2Bi3O7
_chemical_formula_sum   'Ba2 Bi3 O7'
_cell_volume   552.89822247
_cell_formula_units_Z   1
loop_
 _symmetry_equiv_pos_site_id
 _symmetry_equiv_pos_as_xyz
  1  'x, y, z'
loop_
 _atom_site_type_symbol
 _atom_site_label
 _atom_site_symmetry_multiplicity
 _atom_site_fract_x
 _atom_site_fract_y
 _atom_site_fract_z
 _atom_site_occupancy
  Ba  Ba1  1  0.501246  0.469506  0.586486  1
  Ba  Ba2  1  0.501144  0.470225  0.413510  1
  Bi  Bi3  1  0.001221  0.989080  0.655479  1
  Bi  Bi4  1  0.001113  0.989876  0.344499  1
  Bi  Bi5  1  0.001312  0.935758  0.499974  1
  O  O6  1  0.500984  0.117630  0.500007  1
  O  O7  1  0.001233  0.493829  0.641738  1
  O  O8  1  0.001110  0.494686  0.358239  1
  O  O9  1  0.501185  0.985185  0.643033  1
  O  O10  1  0.501095  0.985855  0.357038  1
  O  O11  1  0.001227  0.010320  0.576398  1
  O  O12  1  0.001207  0.011776  0.423599  1
