# generated using pymatgen
data_C3N
_symmetry_space_group_name_H-M   'P 1'
_cell_length_a   3.35890224
_cell_length_b   6.79762601
_cell_length_c   20.01490300
_cell_angle_alpha   90.00000000
_cell_angle_beta   90.00000000
_cell_angle_gamma   90.00000000
_symmetry_Int_Tables_number   1
_chemical_formula_structural   C3N
_chemical_formula_sum   'C6 N2'
_cell_volume   456.99149829
_cell_formula_units_Z   2
loop_
 _symmetry_equiv_pos_site_id
 _symmetry_equiv_pos_as_xyz
  1  'x, y, z'
loop_
 _atom_site_type_symbol
 _atom_site_label
 _atom_site_symmetry_multiplicity
 _atom_site_fract_x
 _atom_site_fract_y
 _atom_site_fract_z
 _atom_site_occupancy
  C  C1  1  0.675076  0.750000  0.500336  1
  C  C2  1  0.324924  0.250000  0.499664  1
  C  C3  1  0.978204  0.900029  0.500162  1
  C  C4  1  0.021796  0.400029  0.499838  1
  C  C5  1  0.021796  0.099971  0.499838  1
  C  C6  1  0.978204  0.599971  0.500162  1
  N  N7  1  0.278059  0.750000  0.500092  1
  N  N8  1  0.721941  0.250000  0.499908  1
