# generated using pymatgen
data_Zn(HO)2
_symmetry_space_group_name_H-M   'P 1'
_cell_length_a   3.20672260
_cell_length_b   3.20672247
_cell_length_c   24.04927000
_cell_angle_alpha   90.00000000
_cell_angle_beta   90.00000000
_cell_angle_gamma   120.00000129
_symmetry_Int_Tables_number   1
_chemical_formula_structural   Zn(HO)2
_chemical_formula_sum   'Zn1 H2 O2'
_cell_volume   214.16835081
_cell_formula_units_Z   1
loop_
 _symmetry_equiv_pos_site_id
 _symmetry_equiv_pos_as_xyz
  1  'x, y, z'
loop_
 _atom_site_type_symbol
 _atom_site_label
 _atom_site_symmetry_multiplicity
 _atom_site_fract_x
 _atom_site_fract_y
 _atom_site_fract_z
 _atom_site_occupancy
  Zn  Zn1  1  0.000000  0.000000  0.500000  1
  H  H2  1  0.666667  0.333333  0.583833  1
  H  H3  1  0.333333  0.666667  0.416167  1
  O  O4  1  0.666667  0.333333  0.543416  1
  O  O5  1  0.333333  0.666667  0.456584  1
