# generated using pymatgen
data_Ag2S
_symmetry_space_group_name_H-M   'P 1'
_cell_length_a   4.67466501
_cell_length_b   6.05411391
_cell_length_c   25.79695025
_cell_angle_alpha   90.00000000
_cell_angle_beta   91.27453028
_cell_angle_gamma   90.00000000
_symmetry_Int_Tables_number   1
_chemical_formula_structural   Ag2S
_chemical_formula_sum   'Ag4 S2'
_cell_volume   729.89769003
_cell_formula_units_Z   2
loop_
 _symmetry_equiv_pos_site_id
 _symmetry_equiv_pos_as_xyz
  1  'x, y, z'
loop_
 _atom_site_type_symbol
 _atom_site_label
 _atom_site_symmetry_multiplicity
 _atom_site_fract_x
 _atom_site_fract_y
 _atom_site_fract_z
 _atom_site_occupancy
  Ag  Ag1  1  0.499784  0.750000  0.546294  1
  Ag  Ag2  1  0.488859  0.250000  0.453706  1
  Ag  Ag3  1  0.994321  -0.000000  0.500000  1
  Ag  Ag4  1  0.994321  0.500000  0.500000  1
  S  S5  1  0.003048  0.750000  0.572726  1
  S  S6  1  0.985595  0.250000  0.427274  1
