# generated using pymatgen
data_Li2VP4O13
_symmetry_space_group_name_H-M   'P 1'
_cell_length_a   4.98221992
_cell_length_b   7.84625579
_cell_length_c   31.04402800
_cell_angle_alpha   90.45798375
_cell_angle_beta   95.15397943
_cell_angle_gamma   81.87116183
_symmetry_Int_Tables_number   1
_chemical_formula_structural   Li2VP4O13
_chemical_formula_sum   'Li4 V2 P8 O26'
_cell_volume   1196.50194512
_cell_formula_units_Z   2
loop_
 _symmetry_equiv_pos_site_id
 _symmetry_equiv_pos_as_xyz
  1  'x, y, z'
loop_
 _atom_site_type_symbol
 _atom_site_label
 _atom_site_symmetry_multiplicity
 _atom_site_fract_x
 _atom_site_fract_y
 _atom_site_fract_z
 _atom_site_occupancy
  Li  Li1  1  0.110761  0.327982  0.512669  1
  Li  Li2  1  0.496606  0.570014  0.309346  1
  Li  Li3  1  0.889239  0.672018  0.487331  1
  Li  Li4  1  0.503394  0.429986  0.690654  1
  V  V5  1  0.503675  0.126483  0.603552  1
  V  V6  1  0.496325  0.873517  0.396448  1
  P  P7  1  0.371331  0.754059  0.624393  1
  P  P8  1  0.685186  0.486137  0.572176  1
  P  P9  1  0.314814  0.513863  0.427824  1
  P  P10  1  0.991091  0.057626  0.441636  1
  P  P11  1  0.628669  0.245941  0.375607  1
  P  P12  1  0.008909  0.942374  0.558364  1
  P  P13  1  0.988336  0.308620  0.650518  1
  P  P14  1  0.011664  0.691380  0.349482  1
  O  O15  1  0.472865  0.332031  0.415724  1
  O  O16  1  0.901282  0.389065  0.691691  1
  O  O17  1  0.702165  0.010454  0.560492  1
  O  O18  1  0.838049  0.155621  0.636752  1
  O  O19  1  0.161951  0.844379  0.363248  1
  O  O20  1  0.503109  0.915231  0.635597  1
  O  O21  1  0.923453  0.182751  0.398652  1
  O  O22  1  0.916850  0.447810  0.611029  1
  O  O23  1  0.170178  0.096879  0.568013  1
  O  O24  1  0.635649  0.369150  0.340270  1
  O  O25  1  0.083150  0.552190  0.388971  1
  O  O26  1  0.509796  0.648807  0.427502  1
  O  O27  1  0.187628  0.494952  0.468701  1
  O  O28  1  0.490204  0.351193  0.572498  1
  O  O29  1  0.098718  0.610935  0.308309  1
  O  O30  1  0.364351  0.630850  0.659730  1
  O  O31  1  0.297835  0.989546  0.439508  1
  O  O32  1  0.699221  0.743553  0.350047  1
  O  O33  1  0.527135  0.667969  0.584276  1
  O  O34  1  0.812372  0.505048  0.531299  1
  O  O35  1  0.928376  0.163495  0.480050  1
  O  O36  1  0.076547  0.817249  0.601348  1
  O  O37  1  0.300779  0.256447  0.649953  1
  O  O38  1  0.496891  0.084769  0.364403  1
  O  O39  1  0.829822  0.903121  0.431987  1
  O  O40  1  0.071624  0.836505  0.519950  1
