# generated using pymatgen
data_Sr(AlCl4)2
_symmetry_space_group_name_H-M   'P 1'
_cell_length_a   6.96611753
_cell_length_b   12.57051620
_cell_length_c   24.95308600
_cell_angle_alpha   90.00000000
_cell_angle_beta   90.00000000
_cell_angle_gamma   90.00000000
_symmetry_Int_Tables_number   1
_chemical_formula_structural   Sr(AlCl4)2
_chemical_formula_sum   'Sr2 Al4 Cl16'
_cell_volume   2185.08418079
_cell_formula_units_Z   2
loop_
 _symmetry_equiv_pos_site_id
 _symmetry_equiv_pos_as_xyz
  1  'x, y, z'
loop_
 _atom_site_type_symbol
 _atom_site_label
 _atom_site_symmetry_multiplicity
 _atom_site_fract_x
 _atom_site_fract_y
 _atom_site_fract_z
 _atom_site_occupancy
  Sr  Sr1  1  0.841004  0.659272  0.500000  1
  Sr  Sr2  1  0.158996  0.159272  0.500000  1
  Al  Al3  1  0.737689  0.995266  0.446036  1
  Al  Al4  1  0.262311  0.495266  0.446036  1
  Al  Al5  1  0.262311  0.823277  0.553964  1
  Al  Al6  1  0.737689  0.323277  0.553964  1
  Cl  Cl7  1  0.471786  0.074978  0.427628  1
  Cl  Cl8  1  0.693827  0.829682  0.426573  1
  Cl  Cl9  1  0.182761  0.515571  0.529165  1
  Cl  Cl10  1  0.817239  0.302973  0.470835  1
  Cl  Cl11  1  0.528214  0.743565  0.572372  1
  Cl  Cl12  1  0.693827  0.488862  0.573427  1
  Cl  Cl13  1  0.306173  0.988862  0.573427  1
  Cl  Cl14  1  0.528214  0.574978  0.427628  1
  Cl  Cl15  1  0.817239  0.015571  0.529165  1
  Cl  Cl16  1  0.471786  0.243565  0.572372  1
  Cl  Cl17  1  0.182761  0.802973  0.470835  1
  Cl  Cl18  1  0.026173  0.562705  0.401329  1
  Cl  Cl19  1  0.306173  0.329682  0.426573  1
  Cl  Cl20  1  0.973827  0.255838  0.598671  1
  Cl  Cl21  1  0.026173  0.755838  0.598671  1
  Cl  Cl22  1  0.973827  0.062705  0.401329  1
