# generated using pymatgen
data_CoH2SeO4
_symmetry_space_group_name_H-M   'P 1'
_cell_length_a   4.77193390
_cell_length_b   5.68798441
_cell_length_c   23.95717500
_cell_angle_alpha   90.00000000
_cell_angle_beta   90.00000000
_cell_angle_gamma   91.96437523
_symmetry_Int_Tables_number   1
_chemical_formula_structural   CoH2SeO4
_chemical_formula_sum   'Co2 H4 Se2 O8'
_cell_volume   649.87993163
_cell_formula_units_Z   2
loop_
 _symmetry_equiv_pos_site_id
 _symmetry_equiv_pos_as_xyz
  1  'x, y, z'
loop_
 _atom_site_type_symbol
 _atom_site_label
 _atom_site_symmetry_multiplicity
 _atom_site_fract_x
 _atom_site_fract_y
 _atom_site_fract_z
 _atom_site_occupancy
  Co  Co1  1  0.314163  0.617904  0.492497  1
  Co  Co2  1  0.814163  0.117904  0.507503  1
  H  H3  1  0.768217  0.714789  0.430584  1
  H  H4  1  0.268217  0.214789  0.569416  1
  H  H5  1  0.658972  0.451344  0.420136  1
  H  H6  1  0.158972  0.951344  0.579864  1
  Se  Se7  1  0.234991  0.111947  0.417122  1
  Se  Se8  1  0.734991  0.611947  0.582878  1
  O  O9  1  0.103904  0.327678  0.461949  1
  O  O10  1  0.603904  0.827678  0.538051  1
  O  O11  1  0.588244  0.379456  0.543054  1
  O  O12  1  0.088244  0.879456  0.456946  1
  O  O13  1  0.082450  0.625560  0.567360  1
  O  O14  1  0.582450  0.125560  0.432640  1
  O  O15  1  0.597675  0.615357  0.422769  1
  O  O16  1  0.097675  0.115357  0.577231  1
