# generated using pymatgen
data_TmFeGe2
_symmetry_space_group_name_H-M   'P 1'
_cell_length_a   4.08041144
_cell_length_b   4.08123253
_cell_length_c   26.88588700
_cell_angle_alpha   90.00000000
_cell_angle_beta   90.00000000
_cell_angle_gamma   90.00000000
_symmetry_Int_Tables_number   1
_chemical_formula_structural   TmFeGe2
_chemical_formula_sum   'Tm2 Fe2 Ge4'
_cell_volume   447.73357732
_cell_formula_units_Z   2
loop_
 _symmetry_equiv_pos_site_id
 _symmetry_equiv_pos_as_xyz
  1  'x, y, z'
loop_
 _atom_site_type_symbol
 _atom_site_label
 _atom_site_symmetry_multiplicity
 _atom_site_fract_x
 _atom_site_fract_y
 _atom_site_fract_z
 _atom_site_occupancy
  Tm  Tm1  1  0.500000  0.500000  0.589793  1
  Tm  Tm2  1  -0.000000  0.000000  0.410207  1
  Fe  Fe3  1  0.500000  0.500000  0.455653  1
  Fe  Fe4  1  0.000000  -0.000000  0.544347  1
  Ge  Ge5  1  0.500000  0.500000  0.372560  1
  Ge  Ge6  1  0.000000  -0.000000  0.627440  1
  Ge  Ge7  1  0.000000  0.500000  0.499974  1
  Ge  Ge8  1  0.500000  -0.000000  0.500026  1
