# generated using pymatgen
data_Li3MnP2
_symmetry_space_group_name_H-M   'P 1'
_cell_length_a   3.95781424
_cell_length_b   3.95781424
_cell_length_c   25.61804800
_cell_angle_alpha   90.00000000
_cell_angle_beta   90.00000000
_cell_angle_gamma   90.00000000
_symmetry_Int_Tables_number   1
_chemical_formula_structural   Li3MnP2
_chemical_formula_sum   'Li3 Mn1 P2'
_cell_volume   401.28862426
_cell_formula_units_Z   1
loop_
 _symmetry_equiv_pos_site_id
 _symmetry_equiv_pos_as_xyz
  1  'x, y, z'
loop_
 _atom_site_type_symbol
 _atom_site_label
 _atom_site_symmetry_multiplicity
 _atom_site_fract_x
 _atom_site_fract_y
 _atom_site_fract_z
 _atom_site_occupancy
  Li  Li1  1  -0.000000  -0.000000  0.393171  1
  Li  Li2  1  0.500000  0.500000  0.500000  1
  Li  Li3  1  -0.000000  -0.000000  0.606829  1
  Mn  Mn4  1  -0.000000  -0.000000  0.500000  1
  P  P5  1  0.000000  0.500000  0.445657  1
  P  P6  1  0.500000  0.000000  0.554343  1
