# generated using pymatgen
data_LiVF6
_symmetry_space_group_name_H-M   'P 1'
_cell_length_a   5.64014796
_cell_length_b   5.62722574
_cell_length_c   23.12073500
_cell_angle_alpha   90.00000000
_cell_angle_beta   90.00000000
_cell_angle_gamma   59.93072015
_symmetry_Int_Tables_number   1
_chemical_formula_structural   LiVF6
_chemical_formula_sum   'Li1 V1 F6'
_cell_volume   635.05814960
_cell_formula_units_Z   1
loop_
 _symmetry_equiv_pos_site_id
 _symmetry_equiv_pos_as_xyz
  1  'x, y, z'
loop_
 _atom_site_type_symbol
 _atom_site_label
 _atom_site_symmetry_multiplicity
 _atom_site_fract_x
 _atom_site_fract_y
 _atom_site_fract_z
 _atom_site_occupancy
  Li  Li1  1  0.169768  0.661619  0.546297  1
  V  V2  1  0.477893  0.045202  0.489332  1
  F  F3  1  0.604162  0.246688  0.458020  1
  F  F4  1  0.602664  0.796914  0.434023  1
  F  F5  1  0.804087  0.845932  0.530605  1
  F  F6  1  0.150084  0.245260  0.458011  1
  F  F7  1  0.357195  0.285790  0.553122  1
  F  F8  1  0.352175  0.844906  0.530589  1
