# generated using pymatgen
data_LiVBO4
_symmetry_space_group_name_H-M   'P 1'
_cell_length_a   4.57268162
_cell_length_b   5.84568545
_cell_length_c   24.51441500
_cell_angle_alpha   90.00000000
_cell_angle_beta   90.00000000
_cell_angle_gamma   90.02312516
_symmetry_Int_Tables_number   1
_chemical_formula_structural   LiVBO4
_chemical_formula_sum   'Li2 V2 B2 O8'
_cell_volume   655.28149651
_cell_formula_units_Z   2
loop_
 _symmetry_equiv_pos_site_id
 _symmetry_equiv_pos_as_xyz
  1  'x, y, z'
loop_
 _atom_site_type_symbol
 _atom_site_label
 _atom_site_symmetry_multiplicity
 _atom_site_fract_x
 _atom_site_fract_y
 _atom_site_fract_z
 _atom_site_occupancy
  Li  Li1  1  0.525944  0.250424  0.427568  1
  Li  Li2  1  0.474056  0.749576  0.572432  1
  V  V3  1  0.000000  0.000000  0.500000  1
  V  V4  1  0.000000  0.500000  0.500000  1
  B  B5  1  0.535263  0.749584  0.450667  1
  B  B6  1  0.464737  0.250416  0.549333  1
  O  O7  1  0.137126  0.252617  0.458354  1
  O  O8  1  0.234309  0.750967  0.462500  1
  O  O9  1  0.675645  0.543903  0.446310  1
  O  O10  1  0.679042  0.957089  0.446974  1
  O  O11  1  0.324355  0.456097  0.553690  1
  O  O12  1  0.320958  0.042911  0.553026  1
  O  O13  1  0.765691  0.249033  0.537500  1
  O  O14  1  0.862874  0.747383  0.541646  1
