# generated using pymatgen
data_LiB(HO2)2
_symmetry_space_group_name_H-M   'P 1'
_cell_length_a   5.03206657
_cell_length_b   7.82942505
_cell_length_c   25.53235100
_cell_angle_alpha   90.00000000
_cell_angle_beta   90.00000000
_cell_angle_gamma   90.00000000
_symmetry_Int_Tables_number   1
_chemical_formula_structural   LiB(HO2)2
_chemical_formula_sum   'Li4 B4 H8 O16'
_cell_volume   1005.92836622
_cell_formula_units_Z   4
loop_
 _symmetry_equiv_pos_site_id
 _symmetry_equiv_pos_as_xyz
  1  'x, y, z'
loop_
 _atom_site_type_symbol
 _atom_site_label
 _atom_site_symmetry_multiplicity
 _atom_site_fract_x
 _atom_site_fract_y
 _atom_site_fract_z
 _atom_site_occupancy
  Li  Li1  1  0.957370  0.172428  0.524456  1
  Li  Li2  1  0.542630  0.672428  0.475544  1
  Li  Li3  1  0.042630  0.827572  0.475544  1
  Li  Li4  1  0.457370  0.327572  0.524456  1
  B  B5  1  0.512385  0.963749  0.554875  1
  B  B6  1  0.987615  0.463749  0.445125  1
  B  B7  1  0.487615  0.036251  0.445125  1
  B  B8  1  0.012385  0.536251  0.554875  1
  H  H9  1  0.316666  0.780594  0.597385  1
  H  H10  1  0.183334  0.280594  0.402615  1
  H  H11  1  0.683334  0.219406  0.402615  1
  H  H12  1  0.816666  0.719406  0.597385  1
  H  H13  1  0.656399  0.134418  0.607544  1
  H  H14  1  0.843601  0.634418  0.392456  1
  H  H15  1  0.343601  0.865582  0.392456  1
  H  H16  1  0.156399  0.365582  0.607544  1
  O  O17  1  0.687744  0.876396  0.514855  1
  O  O18  1  0.812256  0.376396  0.485145  1
  O  O19  1  0.312256  0.123604  0.485145  1
  O  O20  1  0.187744  0.623604  0.514855  1
  O  O21  1  0.251342  0.998485  0.528652  1
  O  O22  1  0.248658  0.498485  0.471348  1
  O  O23  1  0.748658  0.001515  0.471348  1
  O  O24  1  0.751342  0.501515  0.528652  1
  O  O25  1  0.481356  0.849401  0.597543  1
  O  O26  1  0.018644  0.349401  0.402457  1
  O  O27  1  0.518644  0.150599  0.402457  1
  O  O28  1  0.981356  0.650599  0.597543  1
  O  O29  1  0.639687  0.127278  0.569637  1
  O  O30  1  0.860313  0.627278  0.430363  1
  O  O31  1  0.360313  0.872722  0.430363  1
  O  O32  1  0.139687  0.372722  0.569637  1
