# generated using pymatgen
data_SmBr3
_symmetry_space_group_name_H-M   'P 1'
_cell_length_a   4.02620029
_cell_length_b   9.15288912
_cell_length_c   24.38451335
_cell_angle_alpha   90.00000000
_cell_angle_beta   90.00000000
_cell_angle_gamma   90.00000000
_symmetry_Int_Tables_number   1
_chemical_formula_structural   SmBr3
_chemical_formula_sum   'Sm2 Br6'
_cell_volume   898.60259765
_cell_formula_units_Z   2
loop_
 _symmetry_equiv_pos_site_id
 _symmetry_equiv_pos_as_xyz
  1  'x, y, z'
loop_
 _atom_site_type_symbol
 _atom_site_label
 _atom_site_symmetry_multiplicity
 _atom_site_fract_x
 _atom_site_fract_y
 _atom_site_fract_z
 _atom_site_occupancy
  Sm  Sm1  1  0.500000  0.000000  0.505233  1
  Sm  Sm2  1  -0.000000  0.500000  0.494767  1
  Br  Br3  1  -0.000000  0.182900  0.445194  1
  Br  Br4  1  0.500000  0.317100  0.554806  1
  Br  Br5  1  0.500000  0.500000  0.410769  1
  Br  Br6  1  -0.000000  -0.000000  0.589231  1
  Br  Br7  1  0.000000  0.817100  0.445194  1
  Br  Br8  1  0.500000  0.682900  0.554806  1
