# generated using pymatgen
data_Mg3C
_symmetry_space_group_name_H-M   'P 1'
_cell_length_a   3.74411211
_cell_length_b   3.74615285
_cell_length_c   22.35347600
_cell_angle_alpha   90.00000000
_cell_angle_beta   90.00000000
_cell_angle_gamma   90.00000000
_symmetry_Int_Tables_number   1
_chemical_formula_structural   Mg3C
_chemical_formula_sum   'Mg3 C1'
_cell_volume   313.53021766
_cell_formula_units_Z   1
loop_
 _symmetry_equiv_pos_site_id
 _symmetry_equiv_pos_as_xyz
  1  'x, y, z'
loop_
 _atom_site_type_symbol
 _atom_site_label
 _atom_site_symmetry_multiplicity
 _atom_site_fract_x
 _atom_site_fract_y
 _atom_site_fract_z
 _atom_site_occupancy
  Mg  Mg1  1  -0.000000  0.500000  0.461054  1
  Mg  Mg2  1  -0.000000  -0.000000  0.558366  1
  Mg  Mg3  1  0.500000  0.000000  0.461156  1
  C  C4  1  0.500000  0.500000  0.519425  1
