# generated using pymatgen
data_Cr2S5
_symmetry_space_group_name_H-M   'P 1'
_cell_length_a   4.21519277
_cell_length_b   13.55154632
_cell_length_c   25.36360768
_cell_angle_alpha   89.95848628
_cell_angle_beta   90.00000000
_cell_angle_gamma   90.00000000
_symmetry_Int_Tables_number   1
_chemical_formula_structural   Cr2S5
_chemical_formula_sum   'Cr4 S10'
_cell_volume   1448.82925773
_cell_formula_units_Z   2
loop_
 _symmetry_equiv_pos_site_id
 _symmetry_equiv_pos_as_xyz
  1  'x, y, z'
loop_
 _atom_site_type_symbol
 _atom_site_label
 _atom_site_symmetry_multiplicity
 _atom_site_fract_x
 _atom_site_fract_y
 _atom_site_fract_z
 _atom_site_occupancy
  Cr  Cr1  1  0.500000  0.148228  0.525539  1
  Cr  Cr2  1  0.000000  0.352036  0.474480  1
  Cr  Cr3  1  -0.000000  0.648212  0.474339  1
  Cr  Cr4  1  0.500000  0.851793  0.525648  1
  S  S5  1  -0.000000  0.184045  0.495293  1
  S  S6  1  0.500000  0.316336  0.504825  1
  S  S7  1  0.500000  0.684032  0.504483  1
  S  S8  1  0.000000  0.816197  0.495262  1
  S  S9  1  0.500000  0.861103  0.603760  1
  S  S10  1  -0.000000  0.638409  0.396267  1
  S  S11  1  -0.000000  0.361521  0.396395  1
  S  S12  1  0.000000  0.500157  0.505565  1
  S  S13  1  0.500000  0.000008  0.494538  1
  S  S14  1  0.500000  0.137920  0.603605  1
