# generated using pymatgen
data_Re(TeCl6)2
_symmetry_space_group_name_H-M   'P 1'
_cell_length_a   6.47490124
_cell_length_b   6.93198722
_cell_length_c   28.80507300
_cell_angle_alpha   90.00000000
_cell_angle_beta   90.00000000
_cell_angle_gamma   63.30807756
_symmetry_Int_Tables_number   1
_chemical_formula_structural   Re(TeCl6)2
_chemical_formula_sum   'Re1 Te2 Cl12'
_cell_volume   1155.10831377
_cell_formula_units_Z   1
loop_
 _symmetry_equiv_pos_site_id
 _symmetry_equiv_pos_as_xyz
  1  'x, y, z'
loop_
 _atom_site_type_symbol
 _atom_site_label
 _atom_site_symmetry_multiplicity
 _atom_site_fract_x
 _atom_site_fract_y
 _atom_site_fract_z
 _atom_site_occupancy
  Re  Re1  1  0.000000  0.000000  0.500000  1
  Te  Te2  1  0.317451  0.357245  0.410203  1
  Te  Te3  1  0.682549  0.642755  0.589797  1
  Cl  Cl4  1  0.060321  0.490933  0.346292  1
  Cl  Cl5  1  0.939679  0.509067  0.653708  1
  Cl  Cl6  1  0.506898  0.568385  0.390863  1
  Cl  Cl7  1  0.593844  0.214978  0.495989  1
  Cl  Cl8  1  0.406156  0.785022  0.504011  1
  Cl  Cl9  1  0.955021  0.880936  0.574802  1
  Cl  Cl10  1  0.044979  0.119064  0.425198  1
  Cl  Cl11  1  0.952079  0.714590  0.464301  1
  Cl  Cl12  1  0.047921  0.285410  0.535699  1
  Cl  Cl13  1  0.418006  0.954240  0.629786  1
  Cl  Cl14  1  0.581994  0.045760  0.370214  1
  Cl  Cl15  1  0.493102  0.431615  0.609137  1
