# generated using pymatgen
data_ReSeCl
_symmetry_space_group_name_H-M   'P 1'
_cell_length_a   10.96123539
_cell_length_b   11.74852693
_cell_length_c   28.56342200
_cell_angle_alpha   90.00000000
_cell_angle_beta   90.00000000
_cell_angle_gamma   90.00000000
_symmetry_Int_Tables_number   1
_chemical_formula_structural   ReSeCl
_chemical_formula_sum   'Re12 Se12 Cl12'
_cell_volume   3678.35090295
_cell_formula_units_Z   12
loop_
 _symmetry_equiv_pos_site_id
 _symmetry_equiv_pos_as_xyz
  1  'x, y, z'
loop_
 _atom_site_type_symbol
 _atom_site_label
 _atom_site_symmetry_multiplicity
 _atom_site_fract_x
 _atom_site_fract_y
 _atom_site_fract_z
 _atom_site_occupancy
  Re  Re1  1  0.500000  0.500000  0.564654  1
  Re  Re2  1  0.654596  0.565568  0.498978  1
  Re  Re3  1  0.428558  0.643944  0.498989  1
  Re  Re4  1  0.000000  0.000000  0.435346  1
  Re  Re5  1  0.928558  0.856056  0.501011  1
  Re  Re6  1  0.154596  0.934432  0.501022  1
  Re  Re7  1  0.845404  0.065568  0.501022  1
  Re  Re8  1  0.071442  0.143944  0.501011  1
  Re  Re9  1  0.000000  0.000000  0.566697  1
  Re  Re10  1  0.571442  0.356056  0.498989  1
  Re  Re11  1  0.345404  0.434432  0.498978  1
  Re  Re12  1  0.500000  0.500000  0.433303  1
  Se  Se13  1  0.718811  0.424328  0.561780  1
  Se  Se14  1  0.281189  0.575672  0.561780  1
  Se  Se15  1  0.581203  0.702836  0.436293  1
  Se  Se16  1  0.781189  0.924328  0.438220  1
  Se  Se17  1  0.218811  0.075672  0.438220  1
  Se  Se18  1  0.081203  0.797164  0.563707  1
  Se  Se19  1  0.418797  0.297165  0.436293  1
  Se  Se20  1  0.781845  0.924626  0.562369  1
  Se  Se21  1  0.218155  0.075375  0.562369  1
  Se  Se22  1  0.918797  0.202836  0.563707  1
  Se  Se23  1  0.718155  0.424626  0.437631  1
  Se  Se24  1  0.281845  0.575374  0.437631  1
  Cl  Cl25  1  0.000000  0.000000  0.353407  1
  Cl  Cl26  1  0.079109  0.803465  0.436821  1
  Cl  Cl27  1  0.862509  0.652086  0.501672  1
  Cl  Cl28  1  0.500000  0.500000  0.646593  1
  Cl  Cl29  1  0.362509  0.847914  0.498328  1
  Cl  Cl30  1  0.579109  0.696535  0.563179  1
  Cl  Cl31  1  0.920891  0.196535  0.436821  1
  Cl  Cl32  1  0.637491  0.152086  0.498328  1
  Cl  Cl33  1  0.500000  0.500000  0.350938  1
  Cl  Cl34  1  0.137491  0.347914  0.501672  1
  Cl  Cl35  1  0.000000  0.000000  0.649062  1
  Cl  Cl36  1  0.420891  0.303465  0.563179  1
