# generated using pymatgen
data_HoTe3
_symmetry_space_group_name_H-M   'P 1'
_cell_length_a   4.34215924
_cell_length_b   4.34215924
_cell_length_c   29.08852900
_cell_angle_alpha   90.00000000
_cell_angle_beta   90.00000000
_cell_angle_gamma   90.00000000
_symmetry_Int_Tables_number   1
_chemical_formula_structural   HoTe3
_chemical_formula_sum   'Ho2 Te6'
_cell_volume   548.44521557
_cell_formula_units_Z   2
loop_
 _symmetry_equiv_pos_site_id
 _symmetry_equiv_pos_as_xyz
  1  'x, y, z'
loop_
 _atom_site_type_symbol
 _atom_site_label
 _atom_site_symmetry_multiplicity
 _atom_site_fract_x
 _atom_site_fract_y
 _atom_site_fract_z
 _atom_site_occupancy
  Ho  Ho1  1  0.500000  -0.000000  0.570656  1
  Ho  Ho2  1  -0.000000  0.500000  0.429344  1
  Te  Te3  1  -0.000000  0.000000  0.343812  1
  Te  Te4  1  0.500000  0.500000  0.656188  1
  Te  Te5  1  -0.000000  -0.000000  0.656188  1
  Te  Te6  1  0.500000  0.500000  0.343812  1
  Te  Te7  1  0.500000  -0.000000  0.461004  1
  Te  Te8  1  -0.000000  0.500000  0.538996  1
