# generated using pymatgen
data_SnPS3
_symmetry_space_group_name_H-M   'P 1'
_cell_length_a   6.57351961
_cell_length_b   9.42355178
_cell_length_c   28.47827900
_cell_angle_alpha   90.00000000
_cell_angle_beta   90.00000000
_cell_angle_gamma   88.82221781
_symmetry_Int_Tables_number   1
_chemical_formula_structural   SnPS3
_chemical_formula_sum   'Sn4 P4 S12'
_cell_volume   1763.73998591
_cell_formula_units_Z   4
loop_
 _symmetry_equiv_pos_site_id
 _symmetry_equiv_pos_as_xyz
  1  'x, y, z'
loop_
 _atom_site_type_symbol
 _atom_site_label
 _atom_site_symmetry_multiplicity
 _atom_site_fract_x
 _atom_site_fract_y
 _atom_site_fract_z
 _atom_site_occupancy
  Sn  Sn1  1  0.692916  0.555505  0.404439  1
  Sn  Sn2  1  0.192916  0.055505  0.595561  1
  Sn  Sn3  1  0.751131  0.025073  0.473489  1
  Sn  Sn4  1  0.251131  0.525073  0.526511  1
  P  P5  1  0.812906  0.319139  0.540234  1
  P  P6  1  0.312906  0.819139  0.459766  1
  P  P7  1  0.694247  0.181532  0.598904  1
  P  P8  1  0.194247  0.681532  0.401096  1
  S  S9  1  0.577906  0.713158  0.481072  1
  S  S10  1  0.077906  0.213158  0.518928  1
  S  S11  1  0.107053  0.800364  0.512926  1
  S  S12  1  0.607053  0.300364  0.487074  1
  S  S13  1  0.163252  0.485447  0.432870  1
  S  S14  1  0.663252  0.985447  0.567130  1
  S  S15  1  0.926472  0.768456  0.377704  1
  S  S16  1  0.426472  0.268456  0.622296  1
  S  S17  1  0.411018  0.688175  0.350902  1
  S  S18  1  0.911018  0.188175  0.649098  1
  S  S19  1  0.354900  0.016452  0.436301  1
  S  S20  1  0.854900  0.516452  0.563699  1
