# generated using pymatgen
data_MgSb2
_symmetry_space_group_name_H-M   'P 1'
_cell_length_a   3.28468022
_cell_length_b   6.46678607
_cell_length_c   24.72346200
_cell_angle_alpha   90.00000000
_cell_angle_beta   90.00000000
_cell_angle_gamma   104.71229072
_symmetry_Int_Tables_number   1
_chemical_formula_structural   MgSb2
_chemical_formula_sum   'Mg2 Sb4'
_cell_volume   507.94083889
_cell_formula_units_Z   2
loop_
 _symmetry_equiv_pos_site_id
 _symmetry_equiv_pos_as_xyz
  1  'x, y, z'
loop_
 _atom_site_type_symbol
 _atom_site_label
 _atom_site_symmetry_multiplicity
 _atom_site_fract_x
 _atom_site_fract_y
 _atom_site_fract_z
 _atom_site_occupancy
  Mg  Mg1  1  0.631657  0.263316  0.498317  1
  Mg  Mg2  1  0.368343  0.736684  0.501683  1
  Sb  Sb3  1  0.216820  0.433641  0.406010  1
  Sb  Sb4  1  0.981331  0.962662  0.413204  1
  Sb  Sb5  1  0.018669  0.037338  0.586796  1
  Sb  Sb6  1  0.783180  0.566359  0.593990  1
