# generated using pymatgen
data_Sb2O5
_symmetry_space_group_name_H-M   'P 1'
_cell_length_a   5.04589576
_cell_length_b   9.09808715
_cell_length_c   29.10773100
_cell_angle_alpha   90.00000000
_cell_angle_beta   90.00000000
_cell_angle_gamma   90.00000000
_symmetry_Int_Tables_number   1
_chemical_formula_structural   Sb2O5
_chemical_formula_sum   'Sb8 O20'
_cell_volume   1336.27769654
_cell_formula_units_Z   4
loop_
 _symmetry_equiv_pos_site_id
 _symmetry_equiv_pos_as_xyz
  1  'x, y, z'
loop_
 _atom_site_type_symbol
 _atom_site_label
 _atom_site_symmetry_multiplicity
 _atom_site_fract_x
 _atom_site_fract_y
 _atom_site_fract_z
 _atom_site_occupancy
  Sb  Sb1  1  0.592903  0.527506  0.450893  1
  Sb  Sb2  1  0.924296  0.652650  0.609782  1
  Sb  Sb3  1  0.092903  0.972494  0.549107  1
  Sb  Sb4  1  0.575704  0.152650  0.609782  1
  Sb  Sb5  1  0.424296  0.847350  0.390218  1
  Sb  Sb6  1  0.907097  0.027506  0.450893  1
  Sb  Sb7  1  0.075704  0.347350  0.390218  1
  Sb  Sb8  1  0.407097  0.472494  0.549107  1
  O  O9  1  0.253967  0.514186  0.489068  1
  O  O10  1  0.917634  0.531353  0.411500  1
  O  O11  1  0.553061  0.607724  0.595157  1
  O  O12  1  0.051387  0.237928  0.337814  1
  O  O13  1  0.551387  0.262072  0.662186  1
  O  O14  1  0.046946  0.761571  0.555231  1
  O  O15  1  0.417634  0.968647  0.588500  1
  O  O16  1  0.753967  0.985814  0.510932  1
  O  O17  1  0.546946  0.738429  0.444769  1
  O  O18  1  0.946939  0.107724  0.595157  1
  O  O19  1  0.053061  0.892276  0.404843  1
  O  O20  1  0.453054  0.261571  0.555231  1
  O  O21  1  0.246033  0.014186  0.489068  1
  O  O22  1  0.582366  0.031353  0.411500  1
  O  O23  1  0.953054  0.238429  0.444769  1
  O  O24  1  0.448613  0.737928  0.337814  1
  O  O25  1  0.948613  0.762072  0.662186  1
  O  O26  1  0.446939  0.392276  0.404843  1
  O  O27  1  0.082366  0.468647  0.588500  1
  O  O28  1  0.746033  0.485814  0.510932  1
