# generated using pymatgen
data_In2Te5
_symmetry_space_group_name_H-M   'P 1'
_cell_length_a   4.34627528
_cell_length_b   8.63286514
_cell_length_c   24.09030900
_cell_angle_alpha   90.00000000
_cell_angle_beta   90.00000000
_cell_angle_gamma   75.42433289
_symmetry_Int_Tables_number   1
_chemical_formula_structural   In2Te5
_chemical_formula_sum   'In2 Te5'
_cell_volume   874.79726045
_cell_formula_units_Z   1
loop_
 _symmetry_equiv_pos_site_id
 _symmetry_equiv_pos_as_xyz
  1  'x, y, z'
loop_
 _atom_site_type_symbol
 _atom_site_label
 _atom_site_symmetry_multiplicity
 _atom_site_fract_x
 _atom_site_fract_y
 _atom_site_fract_z
 _atom_site_occupancy
  In  In1  1  0.690182  0.769649  0.452713  1
  In  In2  1  0.070491  0.005339  0.548465  1
  Te  Te3  1  0.377081  0.388046  0.499112  1
  Te  Te4  1  0.083294  0.981627  0.427849  1
  Te  Te5  1  0.902811  0.319185  0.585843  1
  Te  Te6  1  0.832993  0.458908  0.412562  1
  Te  Te7  1  0.675503  0.793119  0.573456  1
