# generated using pymatgen
data_Li3V5O14
_symmetry_space_group_name_H-M   'P 1'
_cell_length_a   8.75982915
_cell_length_b   8.75707005
_cell_length_c   23.09346800
_cell_angle_alpha   90.00000000
_cell_angle_beta   90.00000000
_cell_angle_gamma   120.01041928
_symmetry_Int_Tables_number   1
_chemical_formula_structural   Li3V5O14
_chemical_formula_sum   'Li3 V5 O14'
_cell_volume   1534.01159134
_cell_formula_units_Z   1
loop_
 _symmetry_equiv_pos_site_id
 _symmetry_equiv_pos_as_xyz
  1  'x, y, z'
loop_
 _atom_site_type_symbol
 _atom_site_label
 _atom_site_symmetry_multiplicity
 _atom_site_fract_x
 _atom_site_fract_y
 _atom_site_fract_z
 _atom_site_occupancy
  Li  Li1  1  0.999165  0.406324  0.458058  1
  Li  Li2  1  0.592841  0.593676  0.458058  1
  Li  Li3  1  0.406031  -0.000000  0.457987  1
  V  V4  1  0.999784  0.776231  0.497191  1
  V  V5  1  0.666365  0.333308  0.506213  1
  V  V6  1  0.776156  1.000000  0.497204  1
  V  V7  1  0.223552  0.223769  0.497191  1
  V  V8  1  0.333057  0.666692  0.506213  1
  O  O9  1  0.999845  0.178897  0.474026  1
  O  O10  1  0.999810  0.780573  0.566565  1
  O  O11  1  0.696425  0.163695  0.474645  1
  O  O12  1  0.836280  0.532704  0.474641  1
  O  O13  1  0.666278  0.333310  0.576173  1
  O  O14  1  0.820948  0.821103  0.474026  1
  O  O15  1  0.466978  0.303348  0.474603  1
  O  O16  1  0.780530  0.000000  0.566590  1
  O  O17  1  0.219237  0.219427  0.566565  1
  O  O18  1  0.532730  0.836305  0.474645  1
  O  O19  1  0.303576  0.467296  0.474641  1
  O  O20  1  0.332967  0.666690  0.576173  1
  O  O21  1  0.163630  0.696652  0.474603  1
  O  O22  1  0.178522  1.000000  0.473988  1
