# generated using pymatgen
data_CeSe2
_symmetry_space_group_name_H-M   'P 1'
_cell_length_a   5.54068344
_cell_length_b   5.53465892
_cell_length_c   29.17560200
_cell_angle_alpha   90.00000000
_cell_angle_beta   90.00000000
_cell_angle_gamma   90.00000000
_symmetry_Int_Tables_number   1
_chemical_formula_structural   CeSe2
_chemical_formula_sum   'Ce4 Se8'
_cell_volume   894.69297229
_cell_formula_units_Z   4
loop_
 _symmetry_equiv_pos_site_id
 _symmetry_equiv_pos_as_xyz
  1  'x, y, z'
loop_
 _atom_site_type_symbol
 _atom_site_label
 _atom_site_symmetry_multiplicity
 _atom_site_fract_x
 _atom_site_fract_y
 _atom_site_fract_z
 _atom_site_occupancy
  Ce  Ce1  1  0.250000  0.243573  0.618835  1
  Ce  Ce2  1  0.750000  0.756427  0.381165  1
  Ce  Ce3  1  0.750000  0.746493  0.560785  1
  Ce  Ce4  1  0.250000  0.253507  0.439215  1
  Se  Se5  1  0.250000  0.744207  0.643171  1
  Se  Se6  1  0.750000  0.255793  0.356829  1
  Se  Se7  1  0.750000  0.246285  0.604360  1
  Se  Se8  1  0.250000  0.753715  0.395640  1
  Se  Se9  1  0.250000  0.500348  0.533101  1
  Se  Se10  1  0.750000  0.499652  0.466899  1
  Se  Se11  1  0.250000  0.989564  0.532760  1
  Se  Se12  1  0.750000  0.010436  0.467240  1
