# generated using pymatgen
data_MgGe2WO6
_symmetry_space_group_name_H-M   'P 1'
_cell_length_a   5.55599937
_cell_length_b   8.46828858
_cell_length_c   30.19758800
_cell_angle_alpha   90.00000000
_cell_angle_beta   90.00000000
_cell_angle_gamma   90.00000000
_symmetry_Int_Tables_number   1
_chemical_formula_structural   MgGe2WO6
_chemical_formula_sum   'Mg4 Ge8 W4 O24'
_cell_volume   1420.79065753
_cell_formula_units_Z   4
loop_
 _symmetry_equiv_pos_site_id
 _symmetry_equiv_pos_as_xyz
  1  'x, y, z'
loop_
 _atom_site_type_symbol
 _atom_site_label
 _atom_site_symmetry_multiplicity
 _atom_site_fract_x
 _atom_site_fract_y
 _atom_site_fract_z
 _atom_site_occupancy
  Mg  Mg1  1  0.428626  0.581873  0.395316  1
  Mg  Mg2  1  0.071374  0.081873  0.604684  1
  Mg  Mg3  1  0.571374  0.418127  0.604684  1
  Mg  Mg4  1  0.928626  0.918127  0.395316  1
  Ge  Ge5  1  0.982361  0.632372  0.332195  1
  Ge  Ge6  1  0.517639  0.132372  0.667805  1
  Ge  Ge7  1  0.017639  0.367628  0.667805  1
  Ge  Ge8  1  0.482361  0.867628  0.332195  1
  Ge  Ge9  1  0.763757  0.657144  0.485212  1
  Ge  Ge10  1  0.736243  0.157144  0.514788  1
  Ge  Ge11  1  0.236243  0.342856  0.514788  1
  Ge  Ge12  1  0.263757  0.842856  0.485212  1
  W  W13  1  0.931856  0.337815  0.416099  1
  W  W14  1  0.568144  0.837815  0.583901  1
  W  W15  1  0.068144  0.662185  0.583901  1
  W  W16  1  0.431856  0.162186  0.416099  1
  O  O17  1  0.479150  0.710472  0.458595  1
  O  O18  1  0.020850  0.210472  0.541405  1
  O  O19  1  0.520850  0.289528  0.541405  1
  O  O20  1  0.979150  0.789528  0.458595  1
  O  O21  1  0.700390  0.710082  0.364172  1
  O  O22  1  0.799610  0.210082  0.635828  1
  O  O23  1  0.299610  0.289918  0.635828  1
  O  O24  1  0.200390  0.789918  0.364172  1
  O  O25  1  0.301939  0.035857  0.468806  1
  O  O26  1  0.198061  0.535857  0.531194  1
  O  O27  1  0.698061  0.964143  0.531194  1
  O  O28  1  0.801939  0.464143  0.468806  1
  O  O29  1  0.594341  0.999115  0.379450  1
  O  O30  1  0.905659  0.499115  0.620550  1
  O  O31  1  0.405659  0.000885  0.620550  1
  O  O32  1  0.094341  0.500885  0.379450  1
  O  O33  1  0.414276  0.641378  0.610295  1
  O  O34  1  0.085724  0.141378  0.389705  1
  O  O35  1  0.585724  0.358622  0.389705  1
  O  O36  1  0.914276  0.858622  0.610295  1
  O  O37  1  0.740432  0.659488  0.543608  1
  O  O38  1  0.759568  0.159488  0.456392  1
  O  O39  1  0.259568  0.340512  0.456392  1
  O  O40  1  0.240432  0.840512  0.543608  1
