# generated using pymatgen
data_Te2Pt
_symmetry_space_group_name_H-M   'P 1'
_cell_length_a   3.99735234
_cell_length_b   3.99735179
_cell_length_c   22.72533400
_cell_angle_alpha   90.00000000
_cell_angle_beta   90.00000000
_cell_angle_gamma   120.00000455
_symmetry_Int_Tables_number   1
_chemical_formula_structural   Te2Pt
_chemical_formula_sum   'Te2 Pt1'
_cell_volume   314.47468243
_cell_formula_units_Z   1
loop_
 _symmetry_equiv_pos_site_id
 _symmetry_equiv_pos_as_xyz
  1  'x, y, z'
loop_
 _atom_site_type_symbol
 _atom_site_label
 _atom_site_symmetry_multiplicity
 _atom_site_fract_x
 _atom_site_fract_y
 _atom_site_fract_z
 _atom_site_occupancy
  Te  Te1  1  0.666667  0.333333  0.562675  1
  Te  Te2  1  0.333333  0.666667  0.437325  1
  Pt  Pt3  1  0.000000  0.000000  0.500000  1
