# generated using pymatgen
data_LiVSiO4
_symmetry_space_group_name_H-M   'P 1'
_cell_length_a   4.74665286
_cell_length_b   6.29106908
_cell_length_c   24.43979900
_cell_angle_alpha   90.00000000
_cell_angle_beta   90.00000000
_cell_angle_gamma   90.00013178
_symmetry_Int_Tables_number   1
_chemical_formula_structural   LiVSiO4
_chemical_formula_sum   'Li2 V2 Si2 O8'
_cell_volume   729.80957209
_cell_formula_units_Z   2
loop_
 _symmetry_equiv_pos_site_id
 _symmetry_equiv_pos_as_xyz
  1  'x, y, z'
loop_
 _atom_site_type_symbol
 _atom_site_label
 _atom_site_symmetry_multiplicity
 _atom_site_fract_x
 _atom_site_fract_y
 _atom_site_fract_z
 _atom_site_occupancy
  Li  Li1  1  0.054617  0.993799  0.422729  1
  Li  Li2  1  0.945939  0.493794  0.577271  1
  V  V3  1  0.500254  0.743772  0.499992  1
  V  V4  1  0.500311  0.243772  0.500007  1
  Si  Si5  1  0.081694  0.493829  0.461372  1
  Si  Si6  1  0.918868  0.993824  0.538630  1
  O  O7  1  0.245031  0.493764  0.523943  1
  O  O8  1  0.213707  0.716847  0.437746  1
  O  O9  1  0.213724  0.270661  0.437735  1
  O  O10  1  0.263620  0.993781  0.531353  1
  O  O11  1  0.736928  0.493782  0.468647  1
  O  O12  1  0.786820  0.770655  0.562266  1
  O  O13  1  0.786846  0.216843  0.562253  1
  O  O14  1  0.755521  0.993769  0.476056  1
