# generated using pymatgen
data_Bi2Te3
_symmetry_space_group_name_H-M   'P 1'
_cell_length_a   4.42216246
_cell_length_b   4.42216200
_cell_length_c   27.56899800
_cell_angle_alpha   90.00000000
_cell_angle_beta   90.00000000
_cell_angle_gamma   60.00000406
_symmetry_Int_Tables_number   1
_chemical_formula_structural   Bi2Te3
_chemical_formula_sum   'Bi2 Te3'
_cell_volume   466.89688169
_cell_formula_units_Z   1
loop_
 _symmetry_equiv_pos_site_id
 _symmetry_equiv_pos_as_xyz
  1  'x, y, z'
loop_
 _atom_site_type_symbol
 _atom_site_label
 _atom_site_symmetry_multiplicity
 _atom_site_fract_x
 _atom_site_fract_y
 _atom_site_fract_z
 _atom_site_occupancy
  Bi  Bi1  1  0.333333  0.333333  0.425387  1
  Bi  Bi2  1  0.666667  0.666667  0.574613  1
  Te  Te3  1  0.333333  0.333333  0.637420  1
  Te  Te4  1  0.000000  -0.000000  0.500000  1
  Te  Te5  1  0.666667  0.666667  0.362580  1
