# generated using pymatgen
data_Sc(IO3)3
_symmetry_space_group_name_H-M   'P 1'
_cell_length_a   9.82766418
_cell_length_b   9.82766450
_cell_length_c   22.84354800
_cell_angle_alpha   90.00000000
_cell_angle_beta   90.00000000
_cell_angle_gamma   59.99999777
_symmetry_Int_Tables_number   1
_chemical_formula_structural   Sc(IO3)3
_chemical_formula_sum   'Sc2 I6 O18'
_cell_volume   1910.71014716
_cell_formula_units_Z   2
loop_
 _symmetry_equiv_pos_site_id
 _symmetry_equiv_pos_as_xyz
  1  'x, y, z'
loop_
 _atom_site_type_symbol
 _atom_site_label
 _atom_site_symmetry_multiplicity
 _atom_site_fract_x
 _atom_site_fract_y
 _atom_site_fract_z
 _atom_site_occupancy
  Sc  Sc1  1  0.666667  0.666667  0.491095  1
  Sc  Sc2  1  0.333333  0.333333  0.508905  1
  I  I3  1  0.295935  0.707518  0.547933  1
  I  I4  1  0.707518  0.996545  0.547933  1
  I  I5  1  0.996545  0.295935  0.547933  1
  I  I6  1  0.704065  0.292482  0.452067  1
  I  I7  1  0.292482  0.003455  0.452067  1
  I  I8  1  0.003455  0.704065  0.452067  1
  O  O9  1  0.239263  0.735952  0.470122  1
  O  O10  1  0.735952  0.024784  0.470122  1
  O  O11  1  0.024784  0.239263  0.470122  1
  O  O12  1  0.760737  0.264048  0.529878  1
  O  O13  1  0.264048  0.975216  0.529878  1
  O  O14  1  0.975216  0.760737  0.529878  1
  O  O15  1  0.311036  0.516750  0.561681  1
  O  O16  1  0.516750  0.172213  0.561681  1
  O  O17  1  0.144924  0.493798  0.455308  1
  O  O18  1  0.361279  0.144924  0.455308  1
  O  O19  1  0.493798  0.361279  0.455308  1
  O  O20  1  0.855076  0.506202  0.544692  1
  O  O21  1  0.638721  0.855076  0.544692  1
  O  O22  1  0.506202  0.638721  0.544692  1
  O  O23  1  0.827787  0.688964  0.438319  1
  O  O24  1  0.483250  0.827787  0.438319  1
  O  O25  1  0.688964  0.483250  0.438319  1
  O  O26  1  0.172213  0.311036  0.561681  1
