# generated using pymatgen
data_Dy(CuS)2
_symmetry_space_group_name_H-M   'P 1'
_cell_length_a   3.88739159
_cell_length_b   3.88721590
_cell_length_c   24.31515900
_cell_angle_alpha   90.00000000
_cell_angle_beta   90.00000000
_cell_angle_gamma   120.00149505
_symmetry_Int_Tables_number   1
_chemical_formula_structural   Dy(CuS)2
_chemical_formula_sum   'Dy1 Cu2 S2'
_cell_volume   318.19852014
_cell_formula_units_Z   1
loop_
 _symmetry_equiv_pos_site_id
 _symmetry_equiv_pos_as_xyz
  1  'x, y, z'
loop_
 _atom_site_type_symbol
 _atom_site_label
 _atom_site_symmetry_multiplicity
 _atom_site_fract_x
 _atom_site_fract_y
 _atom_site_fract_z
 _atom_site_occupancy
  Dy  Dy1  1  -0.000000  0.000000  0.500000  1
  Cu  Cu2  1  0.333335  0.666671  0.420205  1
  Cu  Cu3  1  0.666665  0.333329  0.579795  1
  S  S4  1  0.333316  0.666633  0.576349  1
  S  S5  1  0.666684  0.333367  0.423651  1
