# generated using pymatgen
data_Sr2Cu2SnO7
_symmetry_space_group_name_H-M   'P 1'
_cell_length_a   5.16384699
_cell_length_b   5.18777063
_cell_length_c   29.94901900
_cell_angle_alpha   90.00000000
_cell_angle_beta   90.00000000
_cell_angle_gamma   90.02507643
_symmetry_Int_Tables_number   1
_chemical_formula_structural   Sr2Cu2SnO7
_chemical_formula_sum   'Sr4 Cu4 Sn2 O14'
_cell_volume   802.29981295
_cell_formula_units_Z   2
loop_
 _symmetry_equiv_pos_site_id
 _symmetry_equiv_pos_as_xyz
  1  'x, y, z'
loop_
 _atom_site_type_symbol
 _atom_site_label
 _atom_site_symmetry_multiplicity
 _atom_site_fract_x
 _atom_site_fract_y
 _atom_site_fract_z
 _atom_site_occupancy
  Sr  Sr1  1  0.526084  0.497023  0.405369  1
  Sr  Sr2  1  0.026399  0.003220  0.594646  1
  Sr  Sr3  1  0.026084  0.003074  0.405369  1
  Sr  Sr4  1  0.526415  0.497162  0.594646  1
  Cu  Cu5  1  0.024261  0.500940  0.334759  1
  Cu  Cu6  1  0.524659  0.999402  0.665215  1
  Cu  Cu7  1  0.524261  0.999210  0.334759  1
  Cu  Cu8  1  0.024660  0.501135  0.665230  1
  Sn  Sn9  1  0.474349  0.957256  0.499997  1
  Sn  Sn10  1  0.974284  0.542779  0.500022  1
  O  O11  1  0.574016  0.567538  0.500014  1
  O  O12  1  0.074060  0.932556  0.500009  1
  O  O13  1  0.774251  0.250122  0.347581  1
  O  O14  1  0.274583  0.250153  0.652522  1
  O  O15  1  0.274208  0.249967  0.347473  1
  O  O16  1  0.774635  0.250341  0.652407  1
  O  O17  1  0.274963  0.749412  0.348423  1
  O  O18  1  0.775340  0.750884  0.651670  1
  O  O19  1  0.774952  0.750716  0.348320  1
  O  O20  1  0.275378  0.749579  0.651558  1
  O  O21  1  0.539250  0.022666  0.436969  1
  O  O22  1  0.039427  0.477386  0.563033  1
  O  O23  1  0.039234  0.477314  0.436959  1
  O  O24  1  0.539461  0.022847  0.563048  1
