# generated using pymatgen
data_Lu2CCl2
_symmetry_space_group_name_H-M   'P 1'
_cell_length_a   3.59142086
_cell_length_b   3.59142015
_cell_length_c   26.04879400
_cell_angle_alpha   90.00000000
_cell_angle_beta   90.00000000
_cell_angle_gamma   60.00000268
_symmetry_Int_Tables_number   1
_chemical_formula_structural   Lu2CCl2
_chemical_formula_sum   'Lu2 C1 Cl2'
_cell_volume   290.97171951
_cell_formula_units_Z   1
loop_
 _symmetry_equiv_pos_site_id
 _symmetry_equiv_pos_as_xyz
  1  'x, y, z'
loop_
 _atom_site_type_symbol
 _atom_site_label
 _atom_site_symmetry_multiplicity
 _atom_site_fract_x
 _atom_site_fract_y
 _atom_site_fract_z
 _atom_site_occupancy
  Lu  Lu1  1  0.333333  0.333333  0.450280  1
  Lu  Lu2  1  0.666667  0.666667  0.549720  1
  C  C3  1  -0.000000  -0.000000  0.500000  1
  Cl  Cl4  1  0.666667  0.666667  0.384023  1
  Cl  Cl5  1  0.333333  0.333333  0.615977  1
