# generated using pymatgen
data_CrI2
_symmetry_space_group_name_H-M   'P 1'
_cell_length_a   3.94157103
_cell_length_b   4.27039706
_cell_length_c   23.26583000
_cell_angle_alpha   90.00000000
_cell_angle_beta   90.00000000
_cell_angle_gamma   117.48389389
_symmetry_Int_Tables_number   1
_chemical_formula_structural   CrI2
_chemical_formula_sum   'Cr1 I2'
_cell_volume   347.41504286
_cell_formula_units_Z   1
loop_
 _symmetry_equiv_pos_site_id
 _symmetry_equiv_pos_as_xyz
  1  'x, y, z'
loop_
 _atom_site_type_symbol
 _atom_site_label
 _atom_site_symmetry_multiplicity
 _atom_site_fract_x
 _atom_site_fract_y
 _atom_site_fract_z
 _atom_site_occupancy
  Cr  Cr1  1  0.000000  0.000000  0.500000  1
  I  I2  1  0.372222  0.744444  0.571155  1
  I  I3  1  0.627778  0.255556  0.428845  1
