# generated using pymatgen
data_LiFePO4
_symmetry_space_group_name_H-M   'P 1'
_cell_length_a   4.82372492
_cell_length_b   6.22580864
_cell_length_c   23.05124101
_cell_angle_alpha   90.00000000
_cell_angle_beta   90.53754924
_cell_angle_gamma   90.00000000
_symmetry_Int_Tables_number   1
_chemical_formula_structural   LiFePO4
_chemical_formula_sum   'Li2 Fe2 P2 O8'
_cell_volume   692.23491167
_cell_formula_units_Z   2
loop_
 _symmetry_equiv_pos_site_id
 _symmetry_equiv_pos_as_xyz
  1  'x, y, z'
loop_
 _atom_site_type_symbol
 _atom_site_label
 _atom_site_symmetry_multiplicity
 _atom_site_fract_x
 _atom_site_fract_y
 _atom_site_fract_z
 _atom_site_occupancy
  Li  Li1  1  0.046633  0.250000  0.420147  1
  Li  Li2  1  0.953367  0.750000  0.579853  1
  Fe  Fe3  1  0.500000  0.000000  0.500000  1
  Fe  Fe4  1  0.500000  0.500000  0.500000  1
  P  P5  1  0.074448  0.750000  0.455734  1
  P  P6  1  0.925552  0.250000  0.544266  1
  O  O7  1  0.776648  0.250000  0.481337  1
  O  O8  1  0.754173  0.750000  0.465578  1
  O  O9  1  0.177936  0.958793  0.427849  1
  O  O10  1  0.177936  0.541207  0.427849  1
  O  O11  1  0.822064  0.458793  0.572151  1
  O  O12  1  0.822064  0.041207  0.572151  1
  O  O13  1  0.245827  0.250000  0.534422  1
  O  O14  1  0.223352  0.750000  0.518663  1
