# generated using pymatgen
data_Tl2Sn(AsS3)2
_symmetry_space_group_name_H-M   'P 1'
_cell_length_a   6.70838275
_cell_length_b   6.70838266
_cell_length_c   25.33825066
_cell_angle_alpha   90.00000000
_cell_angle_beta   90.00000000
_cell_angle_gamma   120.00000041
_symmetry_Int_Tables_number   1
_chemical_formula_structural   Tl2Sn(AsS3)2
_chemical_formula_sum   'Tl2 Sn1 As2 S6'
_cell_volume   987.51322246
_cell_formula_units_Z   1
loop_
 _symmetry_equiv_pos_site_id
 _symmetry_equiv_pos_as_xyz
  1  'x, y, z'
loop_
 _atom_site_type_symbol
 _atom_site_label
 _atom_site_symmetry_multiplicity
 _atom_site_fract_x
 _atom_site_fract_y
 _atom_site_fract_z
 _atom_site_occupancy
  Tl  Tl1  1  0.333333  0.666667  0.391261  1
  Tl  Tl2  1  0.666667  0.333333  0.608739  1
  Sn  Sn3  1  -0.000000  0.000000  0.500000  1
  As  As4  1  0.666667  0.333333  0.479583  1
  As  As5  1  0.333333  0.666667  0.520417  1
  S  S6  1  0.335379  0.230477  0.434377  1
  S  S7  1  0.769523  0.104903  0.434377  1
  S  S8  1  0.895097  0.664621  0.434377  1
  S  S9  1  0.664621  0.769523  0.565623  1
  S  S10  1  0.230477  0.895097  0.565623  1
  S  S11  1  0.104903  0.335379  0.565623  1
