# generated using pymatgen
data_TcO3F
_symmetry_space_group_name_H-M   'P 1'
_cell_length_a   5.05361637
_cell_length_b   9.29669762
_cell_length_c   24.67204200
_cell_angle_alpha   90.00000000
_cell_angle_beta   90.00000000
_cell_angle_gamma   90.00000000
_symmetry_Int_Tables_number   1
_chemical_formula_structural   TcO3F
_chemical_formula_sum   'Tc4 O12 F4'
_cell_volume   1159.14047783
_cell_formula_units_Z   4
loop_
 _symmetry_equiv_pos_site_id
 _symmetry_equiv_pos_as_xyz
  1  'x, y, z'
loop_
 _atom_site_type_symbol
 _atom_site_label
 _atom_site_symmetry_multiplicity
 _atom_site_fract_x
 _atom_site_fract_y
 _atom_site_fract_z
 _atom_site_occupancy
  Tc  Tc1  1  0.920197  0.282615  0.541728  1
  Tc  Tc2  1  0.079803  0.574066  0.458272  1
  Tc  Tc3  1  0.579803  0.782615  0.541728  1
  Tc  Tc4  1  0.420197  0.074066  0.458272  1
  O  O5  1  0.842683  0.870840  0.569275  1
  O  O6  1  0.274150  0.223599  0.489982  1
  O  O7  1  0.725850  0.633082  0.510018  1
  O  O8  1  0.410284  0.714753  0.595544  1
  O  O9  1  0.657317  0.370840  0.569275  1
  O  O10  1  0.774150  0.133082  0.510018  1
  O  O11  1  0.157317  0.985840  0.430725  1
  O  O12  1  0.589716  0.141928  0.404456  1
  O  O13  1  0.342683  0.485840  0.430725  1
  O  O14  1  0.089716  0.214753  0.595544  1
  O  O15  1  0.225850  0.723599  0.489982  1
  O  O16  1  0.910284  0.641928  0.404456  1
  F  F17  1  0.360855  0.967800  0.536771  1
  F  F18  1  0.639145  0.888881  0.463229  1
  F  F19  1  0.860855  0.388881  0.463229  1
  F  F20  1  0.139145  0.467800  0.536771  1
