# generated using pymatgen
data_PdCl2
_symmetry_space_group_name_H-M   'P 1'
_cell_length_a   3.86554301
_cell_length_b   6.49930664
_cell_length_c   22.60533600
_cell_angle_alpha   90.00000000
_cell_angle_beta   90.00000000
_cell_angle_gamma   90.00000000
_symmetry_Int_Tables_number   1
_chemical_formula_structural   PdCl2
_chemical_formula_sum   'Pd2 Cl4'
_cell_volume   567.92175355
_cell_formula_units_Z   2
loop_
 _symmetry_equiv_pos_site_id
 _symmetry_equiv_pos_as_xyz
  1  'x, y, z'
loop_
 _atom_site_type_symbol
 _atom_site_label
 _atom_site_symmetry_multiplicity
 _atom_site_fract_x
 _atom_site_fract_y
 _atom_site_fract_z
 _atom_site_occupancy
  Pd  Pd1  1  -0.000000  0.000000  0.500000  1
  Pd  Pd2  1  0.500000  0.500000  0.500000  1
  Cl  Cl3  1  0.243035  0.252504  0.439243  1
  Cl  Cl4  1  0.743035  0.247496  0.560757  1
  Cl  Cl5  1  0.756965  0.747496  0.560757  1
  Cl  Cl6  1  0.256965  0.752504  0.439243  1
