# generated using pymatgen
data_NaSb(PS3)2
_symmetry_space_group_name_H-M   'P 1'
_cell_length_a   7.27189616
_cell_length_b   11.45021662
_cell_length_c   29.41851300
_cell_angle_alpha   90.00000000
_cell_angle_beta   90.00000000
_cell_angle_gamma   90.00000000
_symmetry_Int_Tables_number   1
_chemical_formula_structural   NaSb(PS3)2
_chemical_formula_sum   'Na4 Sb4 P8 S24'
_cell_volume   2449.52619733
_cell_formula_units_Z   4
loop_
 _symmetry_equiv_pos_site_id
 _symmetry_equiv_pos_as_xyz
  1  'x, y, z'
loop_
 _atom_site_type_symbol
 _atom_site_label
 _atom_site_symmetry_multiplicity
 _atom_site_fract_x
 _atom_site_fract_y
 _atom_site_fract_z
 _atom_site_occupancy
  Na  Na1  1  0.896735  0.730417  0.534305  1
  Na  Na2  1  0.103265  0.025456  0.465695  1
  Na  Na3  1  0.396735  0.525456  0.465695  1
  Na  Na4  1  0.603265  0.230417  0.534305  1
  Sb  Sb5  1  0.868946  0.321648  0.372400  1
  Sb  Sb6  1  0.131054  0.434224  0.627600  1
  Sb  Sb7  1  0.631054  0.821648  0.372400  1
  Sb  Sb8  1  0.368946  0.934224  0.627600  1
  P  P9  1  0.094764  0.134254  0.596750  1
  P  P10  1  0.905236  0.621619  0.403250  1
  P  P11  1  0.128244  0.759458  0.406889  1
  P  P12  1  0.594764  0.121619  0.403250  1
  P  P13  1  0.628244  0.496415  0.593111  1
  P  P14  1  0.371756  0.259458  0.406889  1
  P  P15  1  0.871756  0.996415  0.593111  1
  P  P16  1  0.405236  0.634254  0.596750  1
  S  S17  1  0.494627  0.350378  0.615731  1
  S  S18  1  0.198366  0.556392  0.556920  1
  S  S19  1  0.698366  0.699480  0.443080  1
  S  S20  1  0.683155  0.059898  0.638219  1
  S  S21  1  0.301634  0.056392  0.556920  1
  S  S22  1  0.786031  0.991872  0.527820  1
  S  S23  1  0.994627  0.905495  0.384269  1
  S  S24  1  0.493694  0.973632  0.433342  1
  S  S25  1  0.316845  0.695975  0.361781  1
  S  S26  1  0.506306  0.782240  0.566658  1
  S  S27  1  0.993694  0.282240  0.566658  1
  S  S28  1  0.188237  0.144660  0.660833  1
  S  S29  1  0.006306  0.473632  0.433342  1
  S  S30  1  0.286031  0.264000  0.472180  1
  S  S31  1  0.005373  0.850378  0.615731  1
  S  S32  1  0.505373  0.405495  0.384269  1
  S  S33  1  0.213969  0.764000  0.472180  1
  S  S34  1  0.311763  0.644660  0.660833  1
  S  S35  1  0.816845  0.559898  0.638219  1
  S  S36  1  0.183155  0.195975  0.361781  1
  S  S37  1  0.688237  0.111212  0.339167  1
  S  S38  1  0.801634  0.199480  0.443080  1
  S  S39  1  0.713969  0.491872  0.527820  1
  S  S40  1  0.811763  0.611212  0.339167  1
