# generated using pymatgen
data_LaSe
_symmetry_space_group_name_H-M   'P 1'
_cell_length_a   4.22372355
_cell_length_b   4.22590565
_cell_length_c   23.51009500
_cell_angle_alpha   90.00000000
_cell_angle_beta   90.00000000
_cell_angle_gamma   90.01740954
_symmetry_Int_Tables_number   1
_chemical_formula_structural   LaSe
_chemical_formula_sum   'La2 Se2'
_cell_volume   419.63301140
_cell_formula_units_Z   2
loop_
 _symmetry_equiv_pos_site_id
 _symmetry_equiv_pos_as_xyz
  1  'x, y, z'
loop_
 _atom_site_type_symbol
 _atom_site_label
 _atom_site_symmetry_multiplicity
 _atom_site_fract_x
 _atom_site_fract_y
 _atom_site_fract_z
 _atom_site_occupancy
  La  La1  1  0.026339  0.107456  0.445256  1
  La  La2  1  0.527802  0.605840  0.554744  1
  Se  Se3  1  0.526005  0.607568  0.425216  1
  Se  Se4  1  0.028136  0.105728  0.574784  1
