# generated using pymatgen
data_MoF5
_symmetry_space_group_name_H-M   'P 1'
_cell_length_a   3.57701495
_cell_length_b   8.48908465
_cell_length_c   23.60352200
_cell_angle_alpha   90.00000000
_cell_angle_beta   90.00000000
_cell_angle_gamma   90.00000000
_symmetry_Int_Tables_number   1
_chemical_formula_structural   MoF5
_chemical_formula_sum   'Mo2 F10'
_cell_volume   716.73469942
_cell_formula_units_Z   2
loop_
 _symmetry_equiv_pos_site_id
 _symmetry_equiv_pos_as_xyz
  1  'x, y, z'
loop_
 _atom_site_type_symbol
 _atom_site_label
 _atom_site_symmetry_multiplicity
 _atom_site_fract_x
 _atom_site_fract_y
 _atom_site_fract_z
 _atom_site_occupancy
  Mo  Mo1  1  0.500000  0.500000  0.500000  1
  Mo  Mo2  1  0.500000  0.000000  0.500000  1
  F  F3  1  0.500000  0.750000  0.502255  1
  F  F4  1  0.500000  0.250000  0.497744  1
  F  F5  1  -0.000000  0.408033  0.466367  1
  F  F6  1  -0.000000  0.591967  0.533633  1
  F  F7  1  0.500000  0.068606  0.576373  1
  F  F8  1  0.500000  0.931394  0.423627  1
  F  F9  1  0.500000  0.568606  0.423627  1
  F  F10  1  0.500000  0.431394  0.576373  1
  F  F11  1  -0.000000  0.091967  0.466367  1
  F  F12  1  -0.000000  0.908033  0.533633  1
