# generated using pymatgen
data_NpSe3
_symmetry_space_group_name_H-M   'P 1'
_cell_length_a   4.05155052
_cell_length_b   5.69446577
_cell_length_c   26.30987400
_cell_angle_alpha   90.00000000
_cell_angle_beta   90.00000000
_cell_angle_gamma   90.00000000
_symmetry_Int_Tables_number   1
_chemical_formula_structural   NpSe3
_chemical_formula_sum   'Np2 Se6'
_cell_volume   607.00604143
_cell_formula_units_Z   2
loop_
 _symmetry_equiv_pos_site_id
 _symmetry_equiv_pos_as_xyz
  1  'x, y, z'
loop_
 _atom_site_type_symbol
 _atom_site_label
 _atom_site_symmetry_multiplicity
 _atom_site_fract_x
 _atom_site_fract_y
 _atom_site_fract_z
 _atom_site_occupancy
  Np  Np1  1  0.250000  0.249988  0.552915  1
  Np  Np2  1  0.750000  0.750012  0.447085  1
  Se  Se3  1  0.250000  0.965812  0.383725  1
  Se  Se4  1  0.750000  0.034188  0.616275  1
  Se  Se5  1  0.250000  0.748601  0.524533  1
  Se  Se6  1  0.750000  0.251399  0.475467  1
  Se  Se7  1  0.250000  0.549229  0.380178  1
  Se  Se8  1  0.750000  0.450771  0.619822  1
