# generated using pymatgen
data_LiTeO3
_symmetry_space_group_name_H-M   'P 1'
_cell_length_a   5.19482422
_cell_length_b   5.07128750
_cell_length_c   23.76955100
_cell_angle_alpha   90.00000000
_cell_angle_beta   90.00000000
_cell_angle_gamma   81.50472918
_symmetry_Int_Tables_number   1
_chemical_formula_structural   LiTeO3
_chemical_formula_sum   'Li2 Te2 O6'
_cell_volume   619.32509782
_cell_formula_units_Z   2
loop_
 _symmetry_equiv_pos_site_id
 _symmetry_equiv_pos_as_xyz
  1  'x, y, z'
loop_
 _atom_site_type_symbol
 _atom_site_label
 _atom_site_symmetry_multiplicity
 _atom_site_fract_x
 _atom_site_fract_y
 _atom_site_fract_z
 _atom_site_occupancy
  Li  Li1  1  -0.000000  -0.000000  0.465917  1
  Li  Li2  1  -0.000000  0.500000  0.548942  1
  Te  Te3  1  0.500000  -0.000000  0.520112  1
  Te  Te4  1  0.500000  0.500000  0.439100  1
  O  O5  1  0.744683  0.815848  0.566424  1
  O  O6  1  0.705747  0.805200  0.452350  1
  O  O7  1  0.273004  0.706501  0.494191  1
  O  O8  1  0.726996  0.293499  0.494191  1
  O  O9  1  0.294253  0.194800  0.452350  1
  O  O10  1  0.255317  0.184152  0.566424  1
