# generated using pymatgen
data_VCl2O
_symmetry_space_group_name_H-M   'P 1'
_cell_length_a   3.49539035
_cell_length_b   3.63245729
_cell_length_c   23.33089924
_cell_angle_alpha   90.00000000
_cell_angle_beta   90.00000000
_cell_angle_gamma   90.00000000
_symmetry_Int_Tables_number   1
_chemical_formula_structural   VCl2O
_chemical_formula_sum   'V1 Cl2 O1'
_cell_volume   296.22907169
_cell_formula_units_Z   1
loop_
 _symmetry_equiv_pos_site_id
 _symmetry_equiv_pos_as_xyz
  1  'x, y, z'
loop_
 _atom_site_type_symbol
 _atom_site_label
 _atom_site_symmetry_multiplicity
 _atom_site_fract_x
 _atom_site_fract_y
 _atom_site_fract_z
 _atom_site_occupancy
  V  V1  1  -0.000000  -0.000000  0.500000  1
  Cl  Cl2  1  0.500000  0.000000  0.428489  1
  Cl  Cl3  1  0.500000  0.000000  0.571511  1
  O  O4  1  -0.000000  0.500000  0.500000  1
