# generated using pymatgen
data_AgClO2
_symmetry_space_group_name_H-M   'P 1'
_cell_length_a   4.25163948
_cell_length_b   5.27758451
_cell_length_c   24.95393156
_cell_angle_alpha   90.73818036
_cell_angle_beta   90.00000000
_cell_angle_gamma   90.00000000
_symmetry_Int_Tables_number   1
_chemical_formula_structural   AgClO2
_chemical_formula_sum   'Ag2 Cl2 O4'
_cell_volume   559.87949534
_cell_formula_units_Z   2
loop_
 _symmetry_equiv_pos_site_id
 _symmetry_equiv_pos_as_xyz
  1  'x, y, z'
loop_
 _atom_site_type_symbol
 _atom_site_label
 _atom_site_symmetry_multiplicity
 _atom_site_fract_x
 _atom_site_fract_y
 _atom_site_fract_z
 _atom_site_occupancy
  Ag  Ag1  1  0.250000  0.248833  0.470997  1
  Ag  Ag2  1  0.750000  0.751167  0.529003  1
  Cl  Cl3  1  0.750000  0.252060  0.536421  1
  Cl  Cl4  1  0.250000  0.747940  0.463579  1
  O  O5  1  0.896853  0.238397  0.388329  1
  O  O6  1  0.103147  0.761603  0.611671  1
  O  O7  1  0.396853  0.761603  0.611671  1
  O  O8  1  0.603147  0.238397  0.388329  1
