# generated using pymatgen
data_Cu2WSe4
_symmetry_space_group_name_H-M   'P 1'
_cell_length_a   5.57153664
_cell_length_b   5.57153664
_cell_length_c   22.83789100
_cell_angle_alpha   90.00000000
_cell_angle_beta   90.00000000
_cell_angle_gamma   90.00000000
_symmetry_Int_Tables_number   1
_chemical_formula_structural   Cu2WSe4
_chemical_formula_sum   'Cu2 W1 Se4'
_cell_volume   708.93428130
_cell_formula_units_Z   1
loop_
 _symmetry_equiv_pos_site_id
 _symmetry_equiv_pos_as_xyz
  1  'x, y, z'
loop_
 _atom_site_type_symbol
 _atom_site_label
 _atom_site_symmetry_multiplicity
 _atom_site_fract_x
 _atom_site_fract_y
 _atom_site_fract_z
 _atom_site_occupancy
  Cu  Cu1  1  0.500000  0.000000  0.500000  1
  Cu  Cu2  1  -0.000000  0.500000  0.500000  1
  W  W3  1  0.500000  0.500000  0.500000  1
  Se  Se4  1  0.257746  0.742255  0.437211  1
  Se  Se5  1  0.742255  0.257746  0.437211  1
  Se  Se6  1  0.257746  0.257746  0.562789  1
  Se  Se7  1  0.742255  0.742255  0.562789  1
