# generated using pymatgen
data_CaC2
_symmetry_space_group_name_H-M   'P 1'
_cell_length_a   4.42665739
_cell_length_b   4.52311818
_cell_length_c   23.14808300
_cell_angle_alpha   90.00000000
_cell_angle_beta   90.00000000
_cell_angle_gamma   119.29700826
_symmetry_Int_Tables_number   1
_chemical_formula_structural   CaC2
_chemical_formula_sum   'Ca2 C4'
_cell_volume   404.19653473
_cell_formula_units_Z   2
loop_
 _symmetry_equiv_pos_site_id
 _symmetry_equiv_pos_as_xyz
  1  'x, y, z'
loop_
 _atom_site_type_symbol
 _atom_site_label
 _atom_site_symmetry_multiplicity
 _atom_site_fract_x
 _atom_site_fract_y
 _atom_site_fract_z
 _atom_site_occupancy
  Ca  Ca1  1  0.250133  0.500265  0.437290  1
  Ca  Ca2  1  0.749867  0.499735  0.562710  1
  C  C3  1  0.550618  0.101237  0.477273  1
  C  C4  1  0.449382  0.898763  0.522727  1
  C  C5  1  0.949159  0.898317  0.477212  1
  C  C6  1  0.050841  0.101683  0.522788  1
