# generated using pymatgen
data_VO2F
_symmetry_space_group_name_H-M   'P 1'
_cell_length_a   5.30114149
_cell_length_b   5.62562523
_cell_length_c   24.74522700
_cell_angle_alpha   90.00000000
_cell_angle_beta   90.00000000
_cell_angle_gamma   90.00000000
_symmetry_Int_Tables_number   1
_chemical_formula_structural   VO2F
_chemical_formula_sum   'V4 O8 F4'
_cell_volume   737.95798249
_cell_formula_units_Z   4
loop_
 _symmetry_equiv_pos_site_id
 _symmetry_equiv_pos_as_xyz
  1  'x, y, z'
loop_
 _atom_site_type_symbol
 _atom_site_label
 _atom_site_symmetry_multiplicity
 _atom_site_fract_x
 _atom_site_fract_y
 _atom_site_fract_z
 _atom_site_occupancy
  V  V1  1  0.395912  0.599831  0.449642  1
  V  V2  1  0.104088  0.099831  0.449642  1
  V  V3  1  0.604088  0.184948  0.550358  1
  V  V4  1  0.895912  0.684948  0.550358  1
  O  O5  1  0.862059  0.418142  0.580134  1
  O  O6  1  0.362059  0.866637  0.419866  1
  O  O7  1  0.637941  0.918142  0.580134  1
  O  O8  1  0.137941  0.366637  0.419866  1
  O  O9  1  0.121321  0.655170  0.499329  1
  O  O10  1  0.621321  0.629609  0.500671  1
  O  O11  1  0.378679  0.155170  0.499329  1
  O  O12  1  0.878679  0.129609  0.500671  1
  F  F13  1  0.904123  0.946557  0.403713  1
  F  F14  1  0.595877  0.446557  0.403713  1
  F  F15  1  0.095877  0.838222  0.596287  1
  F  F16  1  0.404123  0.338222  0.596287  1
