# generated using pymatgen
data_CrGeTe3
_symmetry_space_group_name_H-M   'P 1'
_cell_length_a   6.90916045
_cell_length_b   6.90915957
_cell_length_c   23.44458800
_cell_angle_alpha   90.00000000
_cell_angle_beta   90.00000000
_cell_angle_gamma   60.00000058
_symmetry_Int_Tables_number   1
_chemical_formula_structural   CrGeTe3
_chemical_formula_sum   'Cr2 Ge2 Te6'
_cell_volume   969.22306487
_cell_formula_units_Z   2
loop_
 _symmetry_equiv_pos_site_id
 _symmetry_equiv_pos_as_xyz
  1  'x, y, z'
loop_
 _atom_site_type_symbol
 _atom_site_label
 _atom_site_symmetry_multiplicity
 _atom_site_fract_x
 _atom_site_fract_y
 _atom_site_fract_z
 _atom_site_occupancy
  Cr  Cr1  1  0.333333  0.333333  0.499921  1
  Cr  Cr2  1  0.666667  0.666667  0.500079  1
  Ge  Ge3  1  0.000000  -0.000000  0.448330  1
  Ge  Ge4  1  0.000000  -0.000000  0.551670  1
  Te  Te5  1  0.626317  0.000353  0.573777  1
  Te  Te6  1  0.000353  0.373330  0.573777  1
  Te  Te7  1  0.373330  0.626317  0.573777  1
  Te  Te8  1  0.373682  0.999647  0.426223  1
  Te  Te9  1  0.999647  0.626670  0.426223  1
  Te  Te10  1  0.626670  0.373682  0.426223  1
