# generated using pymatgen
data_YI
_symmetry_space_group_name_H-M   'P 1'
_cell_length_a   3.93495687
_cell_length_b   3.93495702
_cell_length_c   27.09031100
_cell_angle_alpha   90.00000000
_cell_angle_beta   90.00000000
_cell_angle_gamma   120.00000706
_symmetry_Int_Tables_number   1
_chemical_formula_structural   YI
_chemical_formula_sum   'Y2 I2'
_cell_volume   363.26584062
_cell_formula_units_Z   2
loop_
 _symmetry_equiv_pos_site_id
 _symmetry_equiv_pos_as_xyz
  1  'x, y, z'
loop_
 _atom_site_type_symbol
 _atom_site_label
 _atom_site_symmetry_multiplicity
 _atom_site_fract_x
 _atom_site_fract_y
 _atom_site_fract_z
 _atom_site_occupancy
  Y  Y1  1  0.666667  0.333333  0.551551  1
  Y  Y2  1  0.333333  0.666667  0.448449  1
  I  I3  1  0.333333  0.666667  0.630729  1
  I  I4  1  0.666667  0.333333  0.369271  1
