# generated using pymatgen
data_Sb2Te4Pb
_symmetry_space_group_name_H-M   'P 1'
_cell_length_a   4.39843434
_cell_length_b   4.39843427
_cell_length_c   31.24674200
_cell_angle_alpha   90.00000000
_cell_angle_beta   90.00000000
_cell_angle_gamma   59.99999944
_symmetry_Int_Tables_number   1
_chemical_formula_structural   Sb2Te4Pb
_chemical_formula_sum   'Sb2 Te4 Pb1'
_cell_volume   523.51796546
_cell_formula_units_Z   1
loop_
 _symmetry_equiv_pos_site_id
 _symmetry_equiv_pos_as_xyz
  1  'x, y, z'
loop_
 _atom_site_type_symbol
 _atom_site_label
 _atom_site_symmetry_multiplicity
 _atom_site_fract_x
 _atom_site_fract_y
 _atom_site_fract_z
 _atom_site_occupancy
  Sb  Sb1  1  0.333333  0.333333  0.627337  1
  Sb  Sb2  1  -0.000000  -0.000000  0.372663  1
  Te  Te3  1  0.333333  0.333333  0.435924  1
  Te  Te4  1  0.666667  0.666667  0.319568  1
  Te  Te5  1  0.666667  0.666667  0.680432  1
  Te  Te6  1  -0.000000  -0.000000  0.564076  1
  Pb  Pb7  1  0.666667  0.666667  0.500000  1
