# generated using pymatgen
data_TiIN
_symmetry_space_group_name_H-M   'P 1'
_cell_length_a   3.53196442
_cell_length_b   3.96750147
_cell_length_c   25.80328000
_cell_angle_alpha   90.00000000
_cell_angle_beta   90.00000000
_cell_angle_gamma   90.00000000
_symmetry_Int_Tables_number   1
_chemical_formula_structural   TiIN
_chemical_formula_sum   'Ti2 I2 N2'
_cell_volume   361.58327281
_cell_formula_units_Z   2
loop_
 _symmetry_equiv_pos_site_id
 _symmetry_equiv_pos_as_xyz
  1  'x, y, z'
loop_
 _atom_site_type_symbol
 _atom_site_label
 _atom_site_symmetry_multiplicity
 _atom_site_fract_x
 _atom_site_fract_y
 _atom_site_fract_z
 _atom_site_occupancy
  Ti  Ti1  1  0.500000  0.500000  0.473110  1
  Ti  Ti2  1  -0.000000  0.000000  0.526890  1
  I  I3  1  0.000000  0.500000  0.387661  1
  I  I4  1  0.500000  -0.000000  0.612339  1
  N  N5  1  0.500000  0.000000  0.487494  1
  N  N6  1  -0.000000  0.500000  0.512506  1
