# generated using pymatgen
data_InSiTe3
_symmetry_space_group_name_H-M   'P 1'
_cell_length_a   7.37242511
_cell_length_b   7.37242543
_cell_length_c   21.01384365
_cell_angle_alpha   90.00000000
_cell_angle_beta   90.00000000
_cell_angle_gamma   119.99999855
_symmetry_Int_Tables_number   1
_chemical_formula_structural   InSiTe3
_chemical_formula_sum   'In1 Si1 Te3'
_cell_volume   989.13801438
_cell_formula_units_Z   1
loop_
 _symmetry_equiv_pos_site_id
 _symmetry_equiv_pos_as_xyz
  1  'x, y, z'
loop_
 _atom_site_type_symbol
 _atom_site_label
 _atom_site_symmetry_multiplicity
 _atom_site_fract_x
 _atom_site_fract_y
 _atom_site_fract_z
 _atom_site_occupancy
  In  In1  1  0.333333  0.666667  0.461192  1
  Si  Si2  1  -0.000000  0.000000  0.507958  1
  Te  Te3  1  0.944300  0.300356  0.510283  1
  Te  Te4  1  0.356055  0.055700  0.510283  1
  Te  Te5  1  0.699644  0.643945  0.510283  1
