# generated using pymatgen
data_Zn2(PS3)3
_symmetry_space_group_name_H-M   'P 1'
_cell_length_a   10.69925586
_cell_length_b   10.59317195
_cell_length_c   24.54913800
_cell_angle_alpha   90.00000000
_cell_angle_beta   90.00000000
_cell_angle_gamma   120.33183229
_symmetry_Int_Tables_number   1
_chemical_formula_structural   Zn2(PS3)3
_chemical_formula_sum   'Zn4 P6 S18'
_cell_volume   2401.51090746
_cell_formula_units_Z   2
loop_
 _symmetry_equiv_pos_site_id
 _symmetry_equiv_pos_as_xyz
  1  'x, y, z'
loop_
 _atom_site_type_symbol
 _atom_site_label
 _atom_site_symmetry_multiplicity
 _atom_site_fract_x
 _atom_site_fract_y
 _atom_site_fract_z
 _atom_site_occupancy
  Zn  Zn1  1  0.707879  0.761845  0.453042  1
  Zn  Zn2  1  0.946036  0.238155  0.546958  1
  Zn  Zn3  1  0.292121  0.238155  0.546958  1
  Zn  Zn4  1  0.053964  0.761845  0.453042  1
  P  P5  1  0.724186  0.448373  0.467339  1
  P  P6  1  0.275814  0.551627  0.532661  1
  P  P7  1  0.970151  0.940302  0.540448  1
  P  P8  1  0.029849  0.059698  0.459552  1
  P  P9  1  0.618475  0.236951  0.556698  1
  P  P10  1  0.381525  0.763049  0.443302  1
  S  S11  1  0.735228  0.470455  0.555034  1
  S  S12  1  0.941149  0.882297  0.406391  1
  S  S13  1  0.392024  0.784050  0.530670  1
  S  S14  1  0.607976  0.215950  0.469330  1
  S  S15  1  0.074878  0.826382  0.545786  1
  S  S16  1  0.058851  0.117703  0.593609  1
  S  S17  1  0.925122  0.173618  0.454214  1
  S  S18  1  0.751503  0.826382  0.545786  1
  S  S19  1  0.917545  0.511518  0.432983  1
  S  S20  1  0.406027  0.488482  0.567017  1
  S  S21  1  0.082455  0.488482  0.567017  1
  S  S22  1  0.593973  0.511518  0.432983  1
  S  S23  1  0.723875  0.147343  0.592494  1
  S  S24  1  0.576533  0.852657  0.407506  1
  S  S25  1  0.276125  0.852657  0.407506  1
  S  S26  1  0.423467  0.147343  0.592494  1
  S  S27  1  0.248497  0.173618  0.454214  1
  S  S28  1  0.264772  0.529545  0.444966  1
