# generated using pymatgen
data_Bi14Te13S8
_symmetry_space_group_name_H-M   'P 1'
_cell_length_a   11.26928477
_cell_length_b   11.26928500
_cell_length_c   27.27841800
_cell_angle_alpha   90.00000000
_cell_angle_beta   90.00000000
_cell_angle_gamma   59.99999775
_symmetry_Int_Tables_number   1
_chemical_formula_structural   Bi14Te13S8
_chemical_formula_sum   'Bi14 Te13 S8'
_cell_volume   3000.14688225
_cell_formula_units_Z   1
loop_
 _symmetry_equiv_pos_site_id
 _symmetry_equiv_pos_as_xyz
  1  'x, y, z'
loop_
 _atom_site_type_symbol
 _atom_site_label
 _atom_site_symmetry_multiplicity
 _atom_site_fract_x
 _atom_site_fract_y
 _atom_site_fract_z
 _atom_site_occupancy
  Bi  Bi1  1  0.333333  0.333333  0.432784  1
  Bi  Bi2  1  0.052523  0.195695  0.430151  1
  Bi  Bi3  1  0.666667  0.666667  0.567216  1
  Bi  Bi4  1  0.480104  0.896827  0.436221  1
  Bi  Bi5  1  0.103173  0.376931  0.563779  1
  Bi  Bi6  1  0.195695  0.751782  0.430151  1
  Bi  Bi7  1  0.947477  0.804305  0.569849  1
  Bi  Bi8  1  0.519896  0.103173  0.563779  1
  Bi  Bi9  1  0.896827  0.623069  0.436221  1
  Bi  Bi10  1  0.804305  0.248218  0.569849  1
  Bi  Bi11  1  0.376931  0.519896  0.563779  1
  Bi  Bi12  1  0.751782  0.052523  0.430151  1
  Bi  Bi13  1  0.623069  0.480104  0.436221  1
  Bi  Bi14  1  0.248218  0.947477  0.569849  1
  Te  Te15  1  0.604757  0.486902  0.634194  1
  Te  Te16  1  0.947452  0.809542  0.367214  1
  Te  Te17  1  0.756993  0.052548  0.632786  1
  Te  Te18  1  0.091660  0.395243  0.365806  1
  Te  Te19  1  0.486902  0.908340  0.634194  1
  Te  Te20  1  0.513098  0.091660  0.365806  1
  Te  Te21  1  -0.000000  0.000000  0.500000  1
  Te  Te22  1  0.190458  0.756993  0.632786  1
  Te  Te23  1  0.908340  0.604757  0.634194  1
  Te  Te24  1  0.052548  0.190458  0.632786  1
  Te  Te25  1  0.809542  0.243007  0.367214  1
  Te  Te26  1  0.395243  0.513098  0.365806  1
  Te  Te27  1  0.243007  0.947452  0.367214  1
  S  S28  1  0.571913  0.289619  0.499111  1
  S  S29  1  0.666667  0.666667  0.385482  1
  S  S30  1  0.138469  0.571913  0.499111  1
  S  S31  1  0.428086  0.710381  0.500888  1
  S  S32  1  0.861531  0.428086  0.500888  1
  S  S33  1  0.289619  0.138469  0.499111  1
  S  S34  1  0.710381  0.861531  0.500888  1
  S  S35  1  0.333333  0.333333  0.614518  1
