# generated using pymatgen
data_CuHgSeCl
_symmetry_space_group_name_H-M   'P 1'
_cell_length_a   4.09062416
_cell_length_b   6.95855136
_cell_length_c   29.66699600
_cell_angle_alpha   90.00000000
_cell_angle_beta   90.00000000
_cell_angle_gamma   90.00000000
_symmetry_Int_Tables_number   1
_chemical_formula_structural   CuHgSeCl
_chemical_formula_sum   'Cu2 Hg2 Se2 Cl2'
_cell_volume   844.46565100
_cell_formula_units_Z   2
loop_
 _symmetry_equiv_pos_site_id
 _symmetry_equiv_pos_as_xyz
  1  'x, y, z'
loop_
 _atom_site_type_symbol
 _atom_site_label
 _atom_site_symmetry_multiplicity
 _atom_site_fract_x
 _atom_site_fract_y
 _atom_site_fract_z
 _atom_site_occupancy
  Cu  Cu1  1  0.500000  0.745934  0.556138  1
  Cu  Cu2  1  0.500000  0.245934  0.443862  1
  Hg  Hg3  1  -0.000000  0.740371  0.483167  1
  Hg  Hg4  1  -0.000000  0.240371  0.516833  1
  Se  Se5  1  0.000000  0.921009  0.561215  1
  Se  Se6  1  0.000000  0.421009  0.438785  1
  Cl  Cl7  1  0.500000  0.929022  0.430908  1
  Cl  Cl8  1  0.500000  0.429022  0.569092  1
