# generated using pymatgen
data_Cr3O8
_symmetry_space_group_name_H-M   'P 1'
_cell_length_a   4.86099372
_cell_length_b   5.96685526
_cell_length_c   22.03003800
_cell_angle_alpha   90.00000000
_cell_angle_beta   90.00000000
_cell_angle_gamma   90.00000000
_symmetry_Int_Tables_number   1
_chemical_formula_structural   Cr3O8
_chemical_formula_sum   'Cr3 O8'
_cell_volume   638.97785840
_cell_formula_units_Z   1
loop_
 _symmetry_equiv_pos_site_id
 _symmetry_equiv_pos_as_xyz
  1  'x, y, z'
loop_
 _atom_site_type_symbol
 _atom_site_label
 _atom_site_symmetry_multiplicity
 _atom_site_fract_x
 _atom_site_fract_y
 _atom_site_fract_z
 _atom_site_occupancy
  Cr  Cr1  1  0.813021  0.500000  0.500000  1
  Cr  Cr2  1  0.313021  0.768412  0.500000  1
  Cr  Cr3  1  0.313021  0.231588  0.500000  1
  O  O4  1  0.175909  -0.000000  0.454311  1
  O  O5  1  0.450132  -0.000000  0.545689  1
  O  O6  1  0.141387  0.500000  0.454893  1
  O  O7  1  0.484654  0.500000  0.545107  1
  O  O8  1  0.003927  0.278867  0.543427  1
  O  O9  1  0.003927  0.721133  0.543427  1
  O  O10  1  0.622114  0.278867  0.456573  1
  O  O11  1  0.622114  0.721133  0.456573  1
