# generated using pymatgen
data_Co3TeO8
_symmetry_space_group_name_H-M   'P 1'
_cell_length_a   6.01828452
_cell_length_b   6.01828462
_cell_length_c   22.07267341
_cell_angle_alpha   90.00000000
_cell_angle_beta   90.00000000
_cell_angle_gamma   60.00000056
_symmetry_Int_Tables_number   1
_chemical_formula_structural   Co3TeO8
_chemical_formula_sum   'Co3 Te1 O8'
_cell_volume   692.35847100
_cell_formula_units_Z   1
loop_
 _symmetry_equiv_pos_site_id
 _symmetry_equiv_pos_as_xyz
  1  'x, y, z'
loop_
 _atom_site_type_symbol
 _atom_site_label
 _atom_site_symmetry_multiplicity
 _atom_site_fract_x
 _atom_site_fract_y
 _atom_site_fract_z
 _atom_site_occupancy
  Co  Co1  1  0.666667  0.166667  0.500000  1
  Co  Co2  1  0.166667  0.166667  0.500000  1
  Co  Co3  1  0.166667  0.666667  0.500000  1
  Te  Te4  1  0.666667  0.666667  0.500000  1
  O  O5  1  0.828075  0.343850  0.453742  1
  O  O6  1  0.828075  0.828075  0.453742  1
  O  O7  1  0.343850  0.828075  0.453742  1
  O  O8  1  0.333333  0.333333  0.459981  1
  O  O9  1  -0.000000  -0.000000  0.540019  1
  O  O10  1  0.989483  0.505258  0.546258  1
  O  O11  1  0.505258  0.505258  0.546258  1
  O  O12  1  0.505258  0.989483  0.546258  1
