# generated using pymatgen
data_Ca2FeClO3
_symmetry_space_group_name_H-M   'P 1'
_cell_length_a   3.84170937
_cell_length_b   3.84170937
_cell_length_c   31.69349590
_cell_angle_alpha   90.00000000
_cell_angle_beta   90.00000000
_cell_angle_gamma   90.00000000
_symmetry_Int_Tables_number   1
_chemical_formula_structural   Ca2FeClO3
_chemical_formula_sum   'Ca4 Fe2 Cl2 O6'
_cell_volume   467.75577675
_cell_formula_units_Z   2
loop_
 _symmetry_equiv_pos_site_id
 _symmetry_equiv_pos_as_xyz
  1  'x, y, z'
loop_
 _atom_site_type_symbol
 _atom_site_label
 _atom_site_symmetry_multiplicity
 _atom_site_fract_x
 _atom_site_fract_y
 _atom_site_fract_z
 _atom_site_occupancy
  Ca  Ca1  1  0.000000  -0.000000  0.353007  1
  Ca  Ca2  1  0.000000  -0.000000  0.459299  1
  Ca  Ca3  1  0.500000  0.500000  0.540698  1
  Ca  Ca4  1  0.500000  0.500000  0.646999  1
  Fe  Fe5  1  -0.000000  0.000000  0.590141  1
  Fe  Fe6  1  0.500000  0.500000  0.409852  1
  Cl  Cl7  1  -0.000000  0.000000  0.684572  1
  Cl  Cl8  1  0.500000  0.500000  0.315440  1
  O  O9  1  0.500000  0.000000  0.600682  1
  O  O10  1  0.500000  0.500000  0.470153  1
  O  O11  1  -0.000000  0.000000  0.529842  1
  O  O12  1  0.500000  -0.000000  0.399317  1
  O  O13  1  -0.000000  0.500000  0.600682  1
  O  O14  1  0.000000  0.500000  0.399317  1
