# generated using pymatgen
data_ScClO
_symmetry_space_group_name_H-M   'P 1'
_cell_length_a   5.02800105
_cell_length_b   5.02800105
_cell_length_c   21.91972148
_cell_angle_alpha   90.00000000
_cell_angle_beta   90.00000000
_cell_angle_gamma   90.00000000
_symmetry_Int_Tables_number   1
_chemical_formula_structural   ScClO
_chemical_formula_sum   'Sc2 Cl2 O2'
_cell_volume   554.14797552
_cell_formula_units_Z   2
loop_
 _symmetry_equiv_pos_site_id
 _symmetry_equiv_pos_as_xyz
  1  'x, y, z'
loop_
 _atom_site_type_symbol
 _atom_site_label
 _atom_site_symmetry_multiplicity
 _atom_site_fract_x
 _atom_site_fract_y
 _atom_site_fract_z
 _atom_site_occupancy
  Sc  Sc1  1  0.000000  0.500000  0.451049  1
  Sc  Sc2  1  0.500000  0.000000  0.548951  1
  Cl  Cl3  1  -0.000000  -0.000000  0.500000  1
  Cl  Cl4  1  0.500000  0.500000  0.500000  1
  O  O5  1  -0.000000  0.500000  0.374735  1
  O  O6  1  0.500000  -0.000000  0.625265  1
