# generated using pymatgen
data_BiAuO2
_symmetry_space_group_name_H-M   'P 1'
_cell_length_a   3.57117569
_cell_length_b   6.48720259
_cell_length_c   23.75425600
_cell_angle_alpha   90.00000000
_cell_angle_beta   90.00000000
_cell_angle_gamma   90.00000000
_symmetry_Int_Tables_number   1
_chemical_formula_structural   BiAuO2
_chemical_formula_sum   'Bi2 Au2 O4'
_cell_volume   550.31342790
_cell_formula_units_Z   2
loop_
 _symmetry_equiv_pos_site_id
 _symmetry_equiv_pos_as_xyz
  1  'x, y, z'
loop_
 _atom_site_type_symbol
 _atom_site_label
 _atom_site_symmetry_multiplicity
 _atom_site_fract_x
 _atom_site_fract_y
 _atom_site_fract_z
 _atom_site_occupancy
  Bi  Bi1  1  0.250000  0.332336  0.432665  1
  Bi  Bi2  1  0.750000  0.447092  0.567335  1
  Au  Au3  1  0.250000  0.948543  0.549866  1
  Au  Au4  1  0.750000  0.830884  0.450134  1
  O  O5  1  0.750000  0.125376  0.421077  1
  O  O6  1  0.750000  0.530991  0.477792  1
  O  O7  1  0.250000  0.248436  0.522208  1
  O  O8  1  0.250000  0.654052  0.578923  1
