# generated using pymatgen
data_Co(ReO4)2
_symmetry_space_group_name_H-M   'P 1'
_cell_length_a   5.78525881
_cell_length_b   5.78525866
_cell_length_c   27.00195200
_cell_angle_alpha   90.00000000
_cell_angle_beta   90.00000000
_cell_angle_gamma   119.99999506
_symmetry_Int_Tables_number   1
_chemical_formula_structural   Co(ReO4)2
_chemical_formula_sum   'Co1 Re2 O8'
_cell_volume   782.65684525
_cell_formula_units_Z   1
loop_
 _symmetry_equiv_pos_site_id
 _symmetry_equiv_pos_as_xyz
  1  'x, y, z'
loop_
 _atom_site_type_symbol
 _atom_site_label
 _atom_site_symmetry_multiplicity
 _atom_site_fract_x
 _atom_site_fract_y
 _atom_site_fract_z
 _atom_site_occupancy
  Co  Co1  1  -0.000000  0.000000  0.500000  1
  Re  Re2  1  0.333333  0.666667  0.434493  1
  Re  Re3  1  0.666667  0.333333  0.565507  1
  O  O4  1  0.666667  0.333333  0.629325  1
  O  O5  1  0.333333  0.666667  0.370675  1
  O  O6  1  0.334849  0.160913  0.543626  1
  O  O7  1  0.173937  0.334849  0.456374  1
  O  O8  1  0.160913  0.826063  0.456374  1
  O  O9  1  0.665151  0.839087  0.456374  1
  O  O10  1  0.826063  0.665151  0.543626  1
  O  O11  1  0.839087  0.173937  0.543626  1
