# generated using pymatgen
data_SrCuBiO4
_symmetry_space_group_name_H-M   'P 1'
_cell_length_a   3.57787323
_cell_length_b   3.57787323
_cell_length_c   33.16532800
_cell_angle_alpha   90.00000000
_cell_angle_beta   90.00000000
_cell_angle_gamma   90.00000000
_symmetry_Int_Tables_number   1
_chemical_formula_structural   SrCuBiO4
_chemical_formula_sum   'Sr2 Cu2 Bi2 O8'
_cell_volume   424.55522901
_cell_formula_units_Z   2
loop_
 _symmetry_equiv_pos_site_id
 _symmetry_equiv_pos_as_xyz
  1  'x, y, z'
loop_
 _atom_site_type_symbol
 _atom_site_label
 _atom_site_symmetry_multiplicity
 _atom_site_fract_x
 _atom_site_fract_y
 _atom_site_fract_z
 _atom_site_occupancy
  Sr  Sr1  1  0.000000  0.000000  0.608114  1
  Sr  Sr2  1  0.000000  0.000000  0.391886  1
  Cu  Cu3  1  0.500000  0.500000  0.458182  1
  Cu  Cu4  1  0.500000  0.500000  0.541818  1
  Bi  Bi5  1  0.500000  0.500000  0.698365  1
  Bi  Bi6  1  0.500000  0.500000  0.301635  1
  O  O7  1  0.000000  0.000000  0.302932  1
  O  O8  1  0.000000  0.500000  0.555249  1
  O  O9  1  0.000000  0.500000  0.444751  1
  O  O10  1  0.000000  0.000000  0.697068  1
  O  O11  1  0.500000  0.500000  0.636658  1
  O  O12  1  0.500000  0.500000  0.363342  1
  O  O13  1  0.500000  0.000000  0.555249  1
  O  O14  1  0.500000  0.000000  0.444751  1
