# generated using pymatgen
data_Pb3N2
_symmetry_space_group_name_H-M   'P 1'
_cell_length_a   3.59342943
_cell_length_b   11.49472330
_cell_length_c   23.06788300
_cell_angle_alpha   90.00000000
_cell_angle_beta   90.00000000
_cell_angle_gamma   90.00000000
_symmetry_Int_Tables_number   1
_chemical_formula_structural   Pb3N2
_chemical_formula_sum   'Pb6 N4'
_cell_volume   952.82991060
_cell_formula_units_Z   2
loop_
 _symmetry_equiv_pos_site_id
 _symmetry_equiv_pos_as_xyz
  1  'x, y, z'
loop_
 _atom_site_type_symbol
 _atom_site_label
 _atom_site_symmetry_multiplicity
 _atom_site_fract_x
 _atom_site_fract_y
 _atom_site_fract_z
 _atom_site_occupancy
  Pb  Pb1  1  0.500000  0.083790  0.448003  1
  Pb  Pb2  1  -0.000000  0.583790  0.551997  1
  Pb  Pb3  1  0.500000  0.417013  0.448062  1
  Pb  Pb4  1  0.000000  0.917013  0.551938  1
  Pb  Pb5  1  0.500000  0.750376  0.425278  1
  Pb  Pb6  1  0.000000  0.250376  0.574722  1
  N  N7  1  0.500000  0.605055  0.487626  1
  N  N8  1  0.000000  0.105055  0.512374  1
  N  N9  1  0.500000  0.895789  0.487566  1
  N  N10  1  0.000000  0.395789  0.512434  1
