# generated using pymatgen
data_Zn3P2
_symmetry_space_group_name_H-M   'P 1'
_cell_length_a   8.29939897
_cell_length_b   8.29939897
_cell_length_c   28.06892500
_cell_angle_alpha   90.00000000
_cell_angle_beta   90.00000000
_cell_angle_gamma   90.00000000
_symmetry_Int_Tables_number   1
_chemical_formula_structural   Zn3P2
_chemical_formula_sum   'Zn12 P8'
_cell_volume   1933.38820697
_cell_formula_units_Z   4
loop_
 _symmetry_equiv_pos_site_id
 _symmetry_equiv_pos_as_xyz
  1  'x, y, z'
loop_
 _atom_site_type_symbol
 _atom_site_label
 _atom_site_symmetry_multiplicity
 _atom_site_fract_x
 _atom_site_fract_y
 _atom_site_fract_z
 _atom_site_occupancy
  Zn  Zn1  1  0.797119  -0.000000  0.462131  1
  Zn  Zn2  1  0.202881  -0.000000  0.462131  1
  Zn  Zn3  1  -0.000000  0.797119  0.537869  1
  Zn  Zn4  1  0.000000  0.202881  0.537869  1
  Zn  Zn5  1  0.500000  0.797605  0.536081  1
  Zn  Zn6  1  0.500000  0.202395  0.536081  1
  Zn  Zn7  1  0.797605  0.500000  0.463919  1
  Zn  Zn8  1  0.202395  0.500000  0.463919  1
  Zn  Zn9  1  0.748750  -0.000000  0.626007  1
  Zn  Zn10  1  0.251250  -0.000000  0.626007  1
  Zn  Zn11  1  0.000000  0.748750  0.373993  1
  Zn  Zn12  1  -0.000000  0.251250  0.373993  1
  P  P13  1  0.000000  -0.000000  0.400325  1
  P  P14  1  -0.000000  -0.000000  0.599675  1
  P  P15  1  0.500000  -0.000000  0.597874  1
  P  P16  1  0.000000  0.500000  0.402126  1
  P  P17  1  0.749027  0.749027  0.500000  1
  P  P18  1  0.250973  0.250973  0.500000  1
  P  P19  1  0.250973  0.749027  0.500000  1
  P  P20  1  0.749027  0.250973  0.500000  1
