# generated using pymatgen
data_GaTeCl
_symmetry_space_group_name_H-M   'P 1'
_cell_length_a   4.12901921
_cell_length_b   5.84637159
_cell_length_c   25.29698400
_cell_angle_alpha   90.00000000
_cell_angle_beta   90.00000000
_cell_angle_gamma   90.00000000
_symmetry_Int_Tables_number   1
_chemical_formula_structural   GaTeCl
_chemical_formula_sum   'Ga2 Te2 Cl2'
_cell_volume   610.66364370
_cell_formula_units_Z   2
loop_
 _symmetry_equiv_pos_site_id
 _symmetry_equiv_pos_as_xyz
  1  'x, y, z'
loop_
 _atom_site_type_symbol
 _atom_site_label
 _atom_site_symmetry_multiplicity
 _atom_site_fract_x
 _atom_site_fract_y
 _atom_site_fract_z
 _atom_site_occupancy
  Ga  Ga1  1  0.500000  0.527886  0.463379  1
  Ga  Ga2  1  0.000000  0.027886  0.536621  1
  Te  Te3  1  -0.000000  0.248448  0.445108  1
  Te  Te4  1  0.500000  0.748448  0.554892  1
  Cl  Cl5  1  0.500000  0.764575  0.395587  1
  Cl  Cl6  1  0.000000  0.264575  0.604413  1
