# generated using pymatgen
data_Hg2IO
_symmetry_space_group_name_H-M   'P 1'
_cell_length_a   7.00119914
_cell_length_b   9.64382055
_cell_length_c   21.25625200
_cell_angle_alpha   90.00000000
_cell_angle_beta   90.00000000
_cell_angle_gamma   68.71613309
_symmetry_Int_Tables_number   1
_chemical_formula_structural   Hg2IO
_chemical_formula_sum   'Hg4 I2 O2'
_cell_volume   1337.29710904
_cell_formula_units_Z   2
loop_
 _symmetry_equiv_pos_site_id
 _symmetry_equiv_pos_as_xyz
  1  'x, y, z'
loop_
 _atom_site_type_symbol
 _atom_site_label
 _atom_site_symmetry_multiplicity
 _atom_site_fract_x
 _atom_site_fract_y
 _atom_site_fract_z
 _atom_site_occupancy
  Hg  Hg1  1  0.232999  0.857398  0.488963  1
  Hg  Hg2  1  0.090397  0.142601  0.511037  1
  Hg  Hg3  1  0.658787  0.499438  0.498686  1
  Hg  Hg4  1  0.158225  0.500562  0.501314  1
  I  I5  1  0.544237  0.219873  0.522647  1
  I  I6  1  0.764110  0.780127  0.477353  1
  O  O7  1  0.346579  0.621790  0.476571  1
  O  O8  1  0.968370  0.378210  0.523429  1
