# generated using pymatgen
data_Mg2Ag2O5
_symmetry_space_group_name_H-M   'P 1'
_cell_length_a   4.02037190
_cell_length_b   4.24017659
_cell_length_c   23.30931900
_cell_angle_alpha   90.00000000
_cell_angle_beta   90.00000000
_cell_angle_gamma   89.99297439
_symmetry_Int_Tables_number   1
_chemical_formula_structural   Mg2Ag2O5
_chemical_formula_sum   'Mg2 Ag2 O5'
_cell_volume   397.35598188
_cell_formula_units_Z   1
loop_
 _symmetry_equiv_pos_site_id
 _symmetry_equiv_pos_as_xyz
  1  'x, y, z'
loop_
 _atom_site_type_symbol
 _atom_site_label
 _atom_site_symmetry_multiplicity
 _atom_site_fract_x
 _atom_site_fract_y
 _atom_site_fract_z
 _atom_site_occupancy
  Mg  Mg1  1  0.499885  0.727484  0.450094  1
  Mg  Mg2  1  0.500150  0.226602  0.533431  1
  Ag  Ag3  1  0.000252  0.725340  0.591102  1
  Ag  Ag4  1  0.999930  0.227662  0.411634  1
  O  O5  1  0.000366  0.225208  0.587368  1
  O  O6  1  0.999906  0.727808  0.423094  1
  O  O7  1  0.500169  0.726282  0.541610  1
  O  O8  1  0.499977  0.227672  0.439833  1
  O  O9  1  0.000133  0.225525  0.521833  1
