# generated using pymatgen
data_Ag3SI
_symmetry_space_group_name_H-M   'P 1'
_cell_length_a   4.37319366
_cell_length_b   4.59650854
_cell_length_c   29.89858300
_cell_angle_alpha   90.00000000
_cell_angle_beta   90.00000000
_cell_angle_gamma   88.33998437
_symmetry_Int_Tables_number   1
_chemical_formula_structural   Ag3SI
_chemical_formula_sum   'Ag6 S2 I2'
_cell_volume   600.75180476
_cell_formula_units_Z   2
loop_
 _symmetry_equiv_pos_site_id
 _symmetry_equiv_pos_as_xyz
  1  'x, y, z'
loop_
 _atom_site_type_symbol
 _atom_site_label
 _atom_site_symmetry_multiplicity
 _atom_site_fract_x
 _atom_site_fract_y
 _atom_site_fract_z
 _atom_site_occupancy
  Ag  Ag1  1  0.021839  0.488583  0.413533  1
  Ag  Ag2  1  0.401333  0.971094  0.384486  1
  Ag  Ag3  1  0.228023  0.493436  0.613212  1
  Ag  Ag4  1  0.496360  0.748202  0.479134  1
  Ag  Ag5  1  0.616175  0.983115  0.588596  1
  Ag  Ag6  1  0.187442  0.256473  0.519511  1
  S  S7  1  0.664815  0.487430  0.550567  1
  S  S8  1  0.002028  0.991606  0.450499  1
  I  I9  1  0.608302  0.464172  0.337137  1
  I  I10  1  0.049843  0.997361  0.663325  1
