# generated using pymatgen
data_NaH4IO2
_symmetry_space_group_name_H-M   'P 1'
_cell_length_a   5.98774063
_cell_length_b   6.54925148
_cell_length_c   24.52135100
_cell_angle_alpha   90.00000000
_cell_angle_beta   90.00000000
_cell_angle_gamma   61.62385303
_symmetry_Int_Tables_number   1
_chemical_formula_structural   NaH4IO2
_chemical_formula_sum   'Na2 H8 I2 O4'
_cell_volume   846.06933371
_cell_formula_units_Z   2
loop_
 _symmetry_equiv_pos_site_id
 _symmetry_equiv_pos_as_xyz
  1  'x, y, z'
loop_
 _atom_site_type_symbol
 _atom_site_label
 _atom_site_symmetry_multiplicity
 _atom_site_fract_x
 _atom_site_fract_y
 _atom_site_fract_z
 _atom_site_occupancy
  Na  Na1  1  0.835551  0.330846  0.502255  1
  Na  Na2  1  0.164449  0.669154  0.497745  1
  H  H3  1  0.065573  0.456385  0.588723  1
  H  H4  1  0.934427  0.543615  0.411277  1
  H  H5  1  0.317439  0.251968  0.564846  1
  H  H6  1  0.682561  0.748032  0.435154  1
  H  H7  1  0.489820  0.576988  0.591737  1
  H  H8  1  0.510180  0.423012  0.408263  1
  H  H9  1  0.551790  0.758015  0.563150  1
  H  H10  1  0.448210  0.241985  0.436850  1
  I  I11  1  0.768336  0.991061  0.588348  1
  I  I12  1  0.231664  0.008939  0.411652  1
  O  O13  1  0.144347  0.375344  0.554819  1
  O  O14  1  0.855653  0.624656  0.445181  1
  O  O15  1  0.506973  0.632439  0.555786  1
  O  O16  1  0.493027  0.367561  0.444214  1
