# generated using pymatgen
data_HfMg6Nb
_symmetry_space_group_name_H-M   'P 1'
_cell_length_a   4.80627818
_cell_length_b   6.14122068
_cell_length_c   23.96487600
_cell_angle_alpha   90.00000000
_cell_angle_beta   90.00000000
_cell_angle_gamma   90.00000000
_symmetry_Int_Tables_number   1
_chemical_formula_structural   HfMg6Nb
_chemical_formula_sum   'Hf1 Mg6 Nb1'
_cell_volume   707.35722431
_cell_formula_units_Z   1
loop_
 _symmetry_equiv_pos_site_id
 _symmetry_equiv_pos_as_xyz
  1  'x, y, z'
loop_
 _atom_site_type_symbol
 _atom_site_label
 _atom_site_symmetry_multiplicity
 _atom_site_fract_x
 _atom_site_fract_y
 _atom_site_fract_z
 _atom_site_occupancy
  Hf  Hf1  1  0.000000  0.000000  0.477839  1
  Mg  Mg2  1  0.500000  0.250957  0.417073  1
  Mg  Mg3  1  0.500000  0.749043  0.417073  1
  Mg  Mg4  1  0.500000  0.500000  0.540186  1
  Mg  Mg5  1  0.000000  0.753682  0.583513  1
  Mg  Mg6  1  -0.000000  0.246318  0.583513  1
  Mg  Mg7  1  -0.000000  0.500000  0.460236  1
  Nb  Nb8  1  0.500000  -0.000000  0.520563  1
