# generated using pymatgen
data_SrH4(SO4)3
_symmetry_space_group_name_H-M   'P 1'
_cell_length_a   6.01123364
_cell_length_b   8.46658351
_cell_length_c   31.21928100
_cell_angle_alpha   90.00000000
_cell_angle_beta   90.00000000
_cell_angle_gamma   109.54150920
_symmetry_Int_Tables_number   1
_chemical_formula_structural   SrH4(SO4)3
_chemical_formula_sum   'Sr2 H8 S6 O24'
_cell_volume   1497.37199520
_cell_formula_units_Z   2
loop_
 _symmetry_equiv_pos_site_id
 _symmetry_equiv_pos_as_xyz
  1  'x, y, z'
loop_
 _atom_site_type_symbol
 _atom_site_label
 _atom_site_symmetry_multiplicity
 _atom_site_fract_x
 _atom_site_fract_y
 _atom_site_fract_z
 _atom_site_occupancy
  Sr  Sr1  1  0.252174  0.554060  0.521107  1
  Sr  Sr2  1  0.254301  0.050961  0.478893  1
  H  H3  1  0.199947  0.836091  0.621363  1
  H  H4  1  0.450048  0.263469  0.619796  1
  H  H5  1  0.792706  0.047064  0.550994  1
  H  H6  1  0.702189  0.712120  0.636278  1
  H  H7  1  0.804285  0.892902  0.363722  1
  H  H8  1  0.713768  0.557958  0.449006  1
  H  H9  1  0.056427  0.341553  0.380204  1
  H  H10  1  0.306527  0.768931  0.378637  1
  S  S11  1  0.611486  0.282845  0.557087  1
  S  S12  1  0.321187  0.642271  0.643254  1
  S  S13  1  0.611388  0.782868  0.441752  1
  S  S14  1  0.895086  0.822154  0.558248  1
  S  S15  1  0.185287  0.962751  0.356746  1
  S  S16  1  0.894989  0.322177  0.442913  1
  O  O17  1  0.340038  0.019344  0.321378  1
  O  O18  1  0.356776  0.830660  0.631484  1
  O  O19  1  0.603366  0.322248  0.606429  1
  O  O20  1  0.263467  0.545832  0.603776  1
  O  O21  1  0.423273  0.815220  0.466298  1
  O  O22  1  0.573074  0.102280  0.551930  1
  O  O23  1  0.661890  0.215371  0.455013  1
  O  O24  1  0.577462  0.794293  0.395346  1
  O  O25  1  0.573997  0.659645  0.657959  1
  O  O26  1  0.418170  0.319671  0.535348  1
  O  O27  1  0.565238  0.592477  0.452667  1
  O  O28  1  0.657800  0.726990  0.545054  1
  O  O29  1  0.848674  0.878032  0.454946  1
  O  O30  1  0.941237  0.012545  0.547333  1
  O  O31  1  0.088305  0.285351  0.464652  1
  O  O32  1  0.932477  0.945377  0.342041  1
  O  O33  1  0.929012  0.810729  0.604654  1
  O  O34  1  0.844584  0.389650  0.544987  1
  O  O35  1  0.933400  0.502742  0.448070  1
  O  O36  1  0.083201  0.789802  0.533702  1
  O  O37  1  0.243007  0.059189  0.396224  1
  O  O38  1  0.903108  0.282774  0.393571  1
  O  O39  1  0.149698  0.774362  0.368516  1
  O  O40  1  0.166437  0.585678  0.678622  1
