# generated using pymatgen
data_Bi2Pb2Se5
_symmetry_space_group_name_H-M   'P 1'
_cell_length_a   4.25143457
_cell_length_b   4.25143440
_cell_length_c   34.26055175
_cell_angle_alpha   90.00000000
_cell_angle_beta   90.00000000
_cell_angle_gamma   120.00000122
_symmetry_Int_Tables_number   1
_chemical_formula_structural   Bi2Pb2Se5
_chemical_formula_sum   'Bi2 Pb2 Se5'
_cell_volume   536.28538464
_cell_formula_units_Z   1
loop_
 _symmetry_equiv_pos_site_id
 _symmetry_equiv_pos_as_xyz
  1  'x, y, z'
loop_
 _atom_site_type_symbol
 _atom_site_label
 _atom_site_symmetry_multiplicity
 _atom_site_fract_x
 _atom_site_fract_y
 _atom_site_fract_z
 _atom_site_occupancy
  Bi  Bi1  1  0.000000  -0.000000  0.664438  1
  Bi  Bi2  1  0.000000  -0.000000  0.335562  1
  Pb  Pb3  1  0.333333  0.666667  0.445615  1
  Pb  Pb4  1  0.666667  0.333333  0.554385  1
  Se  Se5  1  0.666667  0.333333  0.708773  1
  Se  Se6  1  0.333333  0.666667  0.608144  1
  Se  Se7  1  0.666667  0.333333  0.391856  1
  Se  Se8  1  0.000000  -0.000000  0.500000  1
  Se  Se9  1  0.333333  0.666667  0.291227  1
