# generated using pymatgen
data_VF4
_symmetry_space_group_name_H-M   'P 1'
_cell_length_a   5.13212604
_cell_length_b   5.36388135
_cell_length_c   23.40803300
_cell_angle_alpha   90.00000000
_cell_angle_beta   90.00000000
_cell_angle_gamma   90.00000000
_symmetry_Int_Tables_number   1
_chemical_formula_structural   VF4
_chemical_formula_sum   'V2 F8'
_cell_volume   644.37902790
_cell_formula_units_Z   2
loop_
 _symmetry_equiv_pos_site_id
 _symmetry_equiv_pos_as_xyz
  1  'x, y, z'
loop_
 _atom_site_type_symbol
 _atom_site_label
 _atom_site_symmetry_multiplicity
 _atom_site_fract_x
 _atom_site_fract_y
 _atom_site_fract_z
 _atom_site_occupancy
  V  V1  1  0.500000  0.000000  0.500000  1
  V  V2  1  0.000000  0.500000  0.500000  1
  F  F3  1  0.816884  0.811379  0.516815  1
  F  F4  1  0.316884  0.688621  0.483185  1
  F  F5  1  0.593486  0.021695  0.427645  1
  F  F6  1  0.093486  0.478305  0.572355  1
  F  F7  1  0.406514  0.978305  0.572355  1
  F  F8  1  0.906514  0.521695  0.427645  1
  F  F9  1  0.683116  0.311379  0.516815  1
  F  F10  1  0.183116  0.188621  0.483185  1
