# generated using pymatgen
data_SbI3
_symmetry_space_group_name_H-M   'P 1'
_cell_length_a   7.47559098
_cell_length_b   7.47559064
_cell_length_c   23.60255900
_cell_angle_alpha   90.00000000
_cell_angle_beta   90.00000000
_cell_angle_gamma   59.99999852
_symmetry_Int_Tables_number   1
_chemical_formula_structural   SbI3
_chemical_formula_sum   'Sb2 I6'
_cell_volume   1142.30153398
_cell_formula_units_Z   2
loop_
 _symmetry_equiv_pos_site_id
 _symmetry_equiv_pos_as_xyz
  1  'x, y, z'
loop_
 _atom_site_type_symbol
 _atom_site_label
 _atom_site_symmetry_multiplicity
 _atom_site_fract_x
 _atom_site_fract_y
 _atom_site_fract_z
 _atom_site_occupancy
  Sb  Sb1  1  0.666667  0.666667  0.499963  1
  Sb  Sb2  1  0.333333  0.333333  0.500037  1
  I  I3  1  0.660326  0.999847  0.576185  1
  I  I4  1  0.999847  0.339825  0.576185  1
  I  I5  1  0.339825  0.660326  0.576185  1
  I  I6  1  0.339674  0.000153  0.423815  1
  I  I7  1  0.000153  0.660175  0.423815  1
  I  I8  1  0.660175  0.339674  0.423815  1
