# generated using pymatgen
data_CuSiO3
_symmetry_space_group_name_H-M   'P 1'
_cell_length_a   2.86208960
_cell_length_b   8.90250217
_cell_length_c   25.37814913
_cell_angle_alpha   90.00000000
_cell_angle_beta   90.00000000
_cell_angle_gamma   90.00000000
_symmetry_Int_Tables_number   1
_chemical_formula_structural   CuSiO3
_chemical_formula_sum   'Cu2 Si2 O6'
_cell_volume   646.62912052
_cell_formula_units_Z   2
loop_
 _symmetry_equiv_pos_site_id
 _symmetry_equiv_pos_as_xyz
  1  'x, y, z'
loop_
 _atom_site_type_symbol
 _atom_site_label
 _atom_site_symmetry_multiplicity
 _atom_site_fract_x
 _atom_site_fract_y
 _atom_site_fract_z
 _atom_site_occupancy
  Cu  Cu1  1  -0.000000  0.500000  0.500000  1
  Cu  Cu2  1  0.000000  0.000000  0.500000  1
  Si  Si3  1  0.500000  0.750000  0.426074  1
  Si  Si4  1  0.500000  0.250000  0.573926  1
  O  O5  1  0.500000  0.597018  0.462356  1
  O  O6  1  0.500000  0.402982  0.537644  1
  O  O7  1  0.500000  0.902982  0.462356  1
  O  O8  1  0.500000  0.097018  0.537644  1
  O  O9  1  -0.000000  0.250000  0.607013  1
  O  O10  1  -0.000000  0.750000  0.392987  1
