# generated using pymatgen
data_LiMnPO4
_symmetry_space_group_name_H-M   'P 1'
_cell_length_a   5.94109798
_cell_length_b   8.47895545
_cell_length_c   22.50406400
_cell_angle_alpha   90.00000000
_cell_angle_beta   90.00000000
_cell_angle_gamma   90.00000000
_symmetry_Int_Tables_number   1
_chemical_formula_structural   LiMnPO4
_chemical_formula_sum   'Li2 Mn2 P2 O8'
_cell_volume   1133.62658585
_cell_formula_units_Z   2
loop_
 _symmetry_equiv_pos_site_id
 _symmetry_equiv_pos_as_xyz
  1  'x, y, z'
loop_
 _atom_site_type_symbol
 _atom_site_label
 _atom_site_symmetry_multiplicity
 _atom_site_fract_x
 _atom_site_fract_y
 _atom_site_fract_z
 _atom_site_occupancy
  Li  Li1  1  0.500000  -0.000000  0.500000  1
  Li  Li2  1  0.000000  -0.000000  0.500000  1
  Mn  Mn3  1  0.250000  0.634741  0.500000  1
  Mn  Mn4  1  0.750000  0.365259  0.500000  1
  P  P5  1  0.750000  0.677781  0.500000  1
  P  P6  1  0.250000  0.322219  0.500000  1
  O  O7  1  0.250000  0.431058  0.554553  1
  O  O8  1  0.750000  0.568942  0.554553  1
  O  O9  1  0.965049  0.788182  0.500000  1
  O  O10  1  0.534951  0.788182  0.500000  1
  O  O11  1  0.465049  0.211818  0.500000  1
  O  O12  1  0.034951  0.211818  0.500000  1
  O  O13  1  0.250000  0.431058  0.445447  1
  O  O14  1  0.750000  0.568942  0.445447  1
