# generated using pymatgen
data_UBr4
_symmetry_space_group_name_H-M   'P 1'
_cell_length_a   7.11106181
_cell_length_b   7.11106187
_cell_length_c   25.18359700
_cell_angle_alpha   90.00000000
_cell_angle_beta   90.00000000
_cell_angle_gamma   76.97681927
_symmetry_Int_Tables_number   1
_chemical_formula_structural   UBr4
_chemical_formula_sum   'U2 Br8'
_cell_volume   1240.70919829
_cell_formula_units_Z   2
loop_
 _symmetry_equiv_pos_site_id
 _symmetry_equiv_pos_as_xyz
  1  'x, y, z'
loop_
 _atom_site_type_symbol
 _atom_site_label
 _atom_site_symmetry_multiplicity
 _atom_site_fract_x
 _atom_site_fract_y
 _atom_site_fract_z
 _atom_site_occupancy
  U  U1  1  0.801470  0.801470  0.482471  1
  U  U2  1  0.198530  0.198530  0.517529  1
  Br  Br3  1  0.546376  0.165688  0.454128  1
  Br  Br4  1  0.834312  0.453624  0.545872  1
  Br  Br5  1  0.957857  0.957857  0.571027  1
  Br  Br6  1  0.042143  0.042143  0.428973  1
  Br  Br7  1  0.338241  0.338241  0.603025  1
  Br  Br8  1  0.661759  0.661759  0.396975  1
  Br  Br9  1  0.165688  0.546376  0.454128  1
  Br  Br10  1  0.453624  0.834312  0.545872  1
