# generated using pymatgen
data_ZnBi2O5
_symmetry_space_group_name_H-M   'P 1'
_cell_length_a   4.00625542
_cell_length_b   12.13054887
_cell_length_c   25.30053200
_cell_angle_alpha   90.00000000
_cell_angle_beta   90.00000000
_cell_angle_gamma   90.00000000
_symmetry_Int_Tables_number   1
_chemical_formula_structural   ZnBi2O5
_chemical_formula_sum   'Zn2 Bi4 O10'
_cell_volume   1229.55720627
_cell_formula_units_Z   2
loop_
 _symmetry_equiv_pos_site_id
 _symmetry_equiv_pos_as_xyz
  1  'x, y, z'
loop_
 _atom_site_type_symbol
 _atom_site_label
 _atom_site_symmetry_multiplicity
 _atom_site_fract_x
 _atom_site_fract_y
 _atom_site_fract_z
 _atom_site_occupancy
  Zn  Zn1  1  0.000000  0.250000  0.521690  1
  Zn  Zn2  1  -0.000000  0.750000  0.478310  1
  Bi  Bi3  1  0.000000  0.432721  0.434767  1
  Bi  Bi4  1  -0.000000  0.567279  0.565233  1
  Bi  Bi5  1  0.000000  0.932721  0.565233  1
  Bi  Bi6  1  0.000000  0.067279  0.434767  1
  O  O7  1  -0.000000  0.750000  0.557378  1
  O  O8  1  -0.000000  0.250000  0.442622  1
  O  O9  1  0.500000  0.957432  0.592364  1
  O  O10  1  0.500000  0.042568  0.407636  1
  O  O11  1  0.500000  0.457432  0.407636  1
  O  O12  1  0.500000  0.542568  0.592364  1
  O  O13  1  -0.000000  0.401594  0.521391  1
  O  O14  1  -0.000000  0.598406  0.478609  1
  O  O15  1  -0.000000  0.098406  0.521391  1
  O  O16  1  -0.000000  0.901594  0.478609  1
