# generated using pymatgen
data_PrIO
_symmetry_space_group_name_H-M   'P 1'
_cell_length_a   4.11025215
_cell_length_b   4.11025215
_cell_length_c   26.20885900
_cell_angle_alpha   90.00000000
_cell_angle_beta   90.00000000
_cell_angle_gamma   90.00000000
_symmetry_Int_Tables_number   1
_chemical_formula_structural   PrIO
_chemical_formula_sum   'Pr2 I2 O2'
_cell_volume   442.77699117
_cell_formula_units_Z   2
loop_
 _symmetry_equiv_pos_site_id
 _symmetry_equiv_pos_as_xyz
  1  'x, y, z'
loop_
 _atom_site_type_symbol
 _atom_site_label
 _atom_site_symmetry_multiplicity
 _atom_site_fract_x
 _atom_site_fract_y
 _atom_site_fract_z
 _atom_site_occupancy
  Pr  Pr1  1  0.500000  0.000000  0.545504  1
  Pr  Pr2  1  0.000000  0.500000  0.454496  1
  I  I3  1  -0.000000  0.500000  0.618188  1
  I  I4  1  0.500000  0.000000  0.381812  1
  O  O5  1  0.000000  0.000000  0.500000  1
  O  O6  1  0.500000  0.500000  0.500000  1
