# generated using pymatgen
data_VAg(HO2)2
_symmetry_space_group_name_H-M   'P 1'
_cell_length_a   3.77679377
_cell_length_b   6.32405302
_cell_length_c   28.24453866
_cell_angle_alpha   91.38772730
_cell_angle_beta   90.00000000
_cell_angle_gamma   90.00000000
_symmetry_Int_Tables_number   1
_chemical_formula_structural   VAg(HO2)2
_chemical_formula_sum   'V2 Ag2 H4 O8'
_cell_volume   674.41288886
_cell_formula_units_Z   2
loop_
 _symmetry_equiv_pos_site_id
 _symmetry_equiv_pos_as_xyz
  1  'x, y, z'
loop_
 _atom_site_type_symbol
 _atom_site_label
 _atom_site_symmetry_multiplicity
 _atom_site_fract_x
 _atom_site_fract_y
 _atom_site_fract_z
 _atom_site_occupancy
  V  V1  1  0.750000  0.395950  0.462416  1
  V  V2  1  0.250000  0.604050  0.537584  1
  Ag  Ag3  1  0.250000  0.910222  0.453441  1
  Ag  Ag4  1  0.750000  0.089779  0.546559  1
  H  H5  1  0.544218  0.118509  0.644641  1
  H  H6  1  0.044218  0.881491  0.355359  1
  H  H7  1  0.455782  0.881491  0.355359  1
  H  H8  1  0.955782  0.118509  0.644641  1
  O  O9  1  0.250000  0.880910  0.539456  1
  O  O10  1  0.750000  0.119090  0.460544  1
  O  O11  1  0.250000  0.419317  0.480087  1
  O  O12  1  0.750000  0.580683  0.519913  1
  O  O13  1  0.750000  0.498401  0.409439  1
  O  O14  1  0.750000  0.178993  0.629193  1
  O  O15  1  0.250000  0.821008  0.370807  1
  O  O16  1  0.250000  0.501599  0.590561  1
