# generated using pymatgen
data_SiBi2O5
_symmetry_space_group_name_H-M   'P 1'
_cell_length_a   3.90922930
_cell_length_b   10.84585299
_cell_length_c   25.55112730
_cell_angle_alpha   90.00000000
_cell_angle_beta   90.00000000
_cell_angle_gamma   90.00000000
_symmetry_Int_Tables_number   1
_chemical_formula_structural   SiBi2O5
_chemical_formula_sum   'Si2 Bi4 O10'
_cell_volume   1083.34036307
_cell_formula_units_Z   2
loop_
 _symmetry_equiv_pos_site_id
 _symmetry_equiv_pos_as_xyz
  1  'x, y, z'
loop_
 _atom_site_type_symbol
 _atom_site_label
 _atom_site_symmetry_multiplicity
 _atom_site_fract_x
 _atom_site_fract_y
 _atom_site_fract_z
 _atom_site_occupancy
  Si  Si1  1  0.500000  0.795083  0.543450  1
  Si  Si2  1  0.500000  0.295083  0.456550  1
  Bi  Bi3  1  -0.000000  0.649677  0.618815  1
  Bi  Bi4  1  0.000000  0.566784  0.483819  1
  Bi  Bi5  1  0.000000  0.149677  0.381185  1
  Bi  Bi6  1  0.000000  0.066784  0.516181  1
  O  O7  1  0.500000  0.941527  0.530616  1
  O  O8  1  0.000000  0.779266  0.551860  1
  O  O9  1  0.500000  0.745148  0.607366  1
  O  O10  1  0.500000  0.687595  0.498054  1
  O  O11  1  0.000000  0.509296  0.563341  1
  O  O12  1  0.500000  0.441527  0.469384  1
  O  O13  1  0.000000  0.279266  0.448140  1
  O  O14  1  0.500000  0.245148  0.392634  1
  O  O15  1  0.500000  0.187595  0.501946  1
  O  O16  1  0.000000  0.009296  0.436659  1
