# generated using pymatgen
data_FeWClO4
_symmetry_space_group_name_H-M   'P 1'
_cell_length_a   6.78929332
_cell_length_b   6.78929332
_cell_length_c   27.52249500
_cell_angle_alpha   90.00000000
_cell_angle_beta   90.00000000
_cell_angle_gamma   90.00000000
_symmetry_Int_Tables_number   1
_chemical_formula_structural   FeWClO4
_chemical_formula_sum   'Fe2 W2 Cl2 O8'
_cell_volume   1268.63574995
_cell_formula_units_Z   2
loop_
 _symmetry_equiv_pos_site_id
 _symmetry_equiv_pos_as_xyz
  1  'x, y, z'
loop_
 _atom_site_type_symbol
 _atom_site_label
 _atom_site_symmetry_multiplicity
 _atom_site_fract_x
 _atom_site_fract_y
 _atom_site_fract_z
 _atom_site_occupancy
  Fe  Fe1  1  0.000000  0.500000  0.441832  1
  Fe  Fe2  1  0.500000  0.000000  0.558168  1
  W  W3  1  0.500000  0.500000  0.500000  1
  W  W4  1  0.000000  0.000000  0.500000  1
  Cl  Cl5  1  0.500000  0.000000  0.636888  1
  Cl  Cl6  1  0.000000  0.500000  0.363112  1
  O  O7  1  0.718317  0.500000  0.462262  1
  O  O8  1  0.000000  0.781683  0.462262  1
  O  O9  1  0.500000  0.718317  0.537738  1
  O  O10  1  0.500000  0.281683  0.537738  1
  O  O11  1  0.781683  0.000000  0.537738  1
  O  O12  1  0.000000  0.218317  0.462262  1
  O  O13  1  0.281683  0.500000  0.462262  1
  O  O14  1  0.218317  -0.000000  0.537738  1
