# generated using pymatgen
data_Zn2In2S5
_symmetry_space_group_name_H-M   'P 1'
_cell_length_a   3.90105553
_cell_length_b   3.90105538
_cell_length_c   32.64353100
_cell_angle_alpha   90.00000000
_cell_angle_beta   90.00000000
_cell_angle_gamma   60.00000710
_symmetry_Int_Tables_number   1
_chemical_formula_structural   Zn2In2S5
_chemical_formula_sum   'Zn2 In2 S5'
_cell_volume   430.22143060
_cell_formula_units_Z   1
loop_
 _symmetry_equiv_pos_site_id
 _symmetry_equiv_pos_as_xyz
  1  'x, y, z'
loop_
 _atom_site_type_symbol
 _atom_site_label
 _atom_site_symmetry_multiplicity
 _atom_site_fract_x
 _atom_site_fract_y
 _atom_site_fract_z
 _atom_site_occupancy
  Zn  Zn1  1  0.000000  0.000000  0.672141  1
  Zn  Zn2  1  0.666667  0.666667  0.438519  1
  In  In3  1  0.333333  0.333333  0.553472  1
  In  In4  1  0.000000  -0.000000  0.335234  1
  S  S5  1  0.333333  0.333333  0.689133  1
  S  S6  1  0.666667  0.666667  0.506580  1
  S  S7  1  0.666667  0.666667  0.301288  1
  S  S8  1  0.000000  -0.000000  0.592451  1
  S  S9  1  -0.000000  -0.000000  0.411184  1
