# generated using pymatgen
data_Bi2Se3
_symmetry_space_group_name_H-M   'P 1'
_cell_length_a   4.17151192
_cell_length_b   10.22844092
_cell_length_c   25.31389900
_cell_angle_alpha   90.00000000
_cell_angle_beta   90.00000000
_cell_angle_gamma   90.00000000
_symmetry_Int_Tables_number   1
_chemical_formula_structural   Bi2Se3
_chemical_formula_sum   'Bi4 Se6'
_cell_volume   1080.09504290
_cell_formula_units_Z   2
loop_
 _symmetry_equiv_pos_site_id
 _symmetry_equiv_pos_as_xyz
  1  'x, y, z'
loop_
 _atom_site_type_symbol
 _atom_site_label
 _atom_site_symmetry_multiplicity
 _atom_site_fract_x
 _atom_site_fract_y
 _atom_site_fract_z
 _atom_site_occupancy
  Bi  Bi1  1  0.250000  0.476229  0.425015  1
  Bi  Bi2  1  0.750000  0.523771  0.574985  1
  Bi  Bi3  1  0.750000  0.143823  0.467815  1
  Bi  Bi4  1  0.250000  0.856177  0.532185  1
  Se  Se5  1  0.750000  0.331447  0.376852  1
  Se  Se6  1  0.250000  0.668553  0.623148  1
  Se  Se7  1  0.750000  0.019078  0.572722  1
  Se  Se8  1  0.250000  0.980922  0.427278  1
  Se  Se9  1  0.250000  0.334896  0.517110  1
  Se  Se10  1  0.750000  0.665104  0.482890  1
