# generated using pymatgen
data_Ba2Co3O8
_symmetry_space_group_name_H-M   'P 1'
_cell_length_a   3.84015130
_cell_length_b   3.84015131
_cell_length_c   28.44195100
_cell_angle_alpha   90.00000000
_cell_angle_beta   90.00000000
_cell_angle_gamma   90.02404313
_symmetry_Int_Tables_number   1
_chemical_formula_structural   Ba2Co3O8
_chemical_formula_sum   'Ba2 Co3 O8'
_cell_volume   419.42664655
_cell_formula_units_Z   1
loop_
 _symmetry_equiv_pos_site_id
 _symmetry_equiv_pos_as_xyz
  1  'x, y, z'
loop_
 _atom_site_type_symbol
 _atom_site_label
 _atom_site_symmetry_multiplicity
 _atom_site_fract_x
 _atom_site_fract_y
 _atom_site_fract_z
 _atom_site_occupancy
  Ba  Ba1  1  0.500000  0.500000  0.427573  1
  Ba  Ba2  1  0.500000  0.500000  0.572421  1
  Co  Co3  1  0.000000  0.000000  0.353967  1
  Co  Co4  1  -0.000000  -0.000000  0.500016  1
  Co  Co5  1  -0.000000  0.000000  0.645972  1
  O  O6  1  0.500000  -0.000000  0.352713  1
  O  O7  1  0.000000  0.500000  0.352713  1
  O  O8  1  -0.000000  0.500000  0.500018  1
  O  O9  1  -0.000000  -0.000000  0.433842  1
  O  O10  1  0.500000  0.000000  0.647260  1
  O  O11  1  0.000000  0.500000  0.647260  1
  O  O12  1  -0.000000  -0.000000  0.566224  1
  O  O13  1  0.500000  -0.000000  0.500018  1
