# generated using pymatgen
data_ZnPS3
_symmetry_space_group_name_H-M   'P 1'
_cell_length_a   5.99858841
_cell_length_b   5.99858784
_cell_length_c   23.23379100
_cell_angle_alpha   90.00000000
_cell_angle_beta   90.00000000
_cell_angle_gamma   119.98166350
_symmetry_Int_Tables_number   1
_chemical_formula_structural   ZnPS3
_chemical_formula_sum   'Zn2 P2 S6'
_cell_volume   724.15079526
_cell_formula_units_Z   2
loop_
 _symmetry_equiv_pos_site_id
 _symmetry_equiv_pos_as_xyz
  1  'x, y, z'
loop_
 _atom_site_type_symbol
 _atom_site_label
 _atom_site_symmetry_multiplicity
 _atom_site_fract_x
 _atom_site_fract_y
 _atom_site_fract_z
 _atom_site_occupancy
  Zn  Zn1  1  0.333123  0.666877  0.500000  1
  Zn  Zn2  1  0.666877  0.333123  0.500000  1
  P  P3  1  0.000090  0.000090  0.547707  1
  P  P4  1  -0.000090  -0.000090  0.452293  1
  S  S5  1  0.329741  0.000044  0.569662  1
  S  S6  1  0.999956  0.670259  0.430338  1
  S  S7  1  0.329723  0.329723  0.430378  1
  S  S8  1  0.670277  0.670277  0.569622  1
  S  S9  1  0.670259  0.999956  0.430338  1
  S  S10  1  0.000044  0.329741  0.569662  1
