# generated using pymatgen
data_LiNiPO4
_symmetry_space_group_name_H-M   'P 1'
_cell_length_a   5.88815475
_cell_length_b   5.78968778
_cell_length_c   22.04742984
_cell_angle_alpha   90.00000000
_cell_angle_beta   90.00000000
_cell_angle_gamma   119.67624025
_symmetry_Int_Tables_number   1
_chemical_formula_structural   LiNiPO4
_chemical_formula_sum   'Li1 Ni1 P1 O4'
_cell_volume   653.02616927
_cell_formula_units_Z   1
loop_
 _symmetry_equiv_pos_site_id
 _symmetry_equiv_pos_as_xyz
  1  'x, y, z'
loop_
 _atom_site_type_symbol
 _atom_site_label
 _atom_site_symmetry_multiplicity
 _atom_site_fract_x
 _atom_site_fract_y
 _atom_site_fract_z
 _atom_site_occupancy
  Li  Li1  1  0.500000  -0.000000  0.441568  1
  Ni  Ni2  1  -0.000000  -0.000000  0.548370  1
  P  P3  1  0.500000  0.500000  0.498360  1
  O  O4  1  0.730448  0.681462  0.543647  1
  O  O5  1  0.423995  0.672221  0.462205  1
  O  O6  1  0.576005  0.327779  0.462205  1
  O  O7  1  0.269552  0.318538  0.543647  1
