# generated using pymatgen
data_VCl3
_symmetry_space_group_name_H-M   'P 1'
_cell_length_a   5.96040161
_cell_length_b   5.96040148
_cell_length_c   22.71920600
_cell_angle_alpha   90.00000000
_cell_angle_beta   90.00000000
_cell_angle_gamma   59.99999409
_symmetry_Int_Tables_number   1
_chemical_formula_structural   VCl3
_chemical_formula_sum   'V2 Cl6'
_cell_volume   698.99616397
_cell_formula_units_Z   2
loop_
 _symmetry_equiv_pos_site_id
 _symmetry_equiv_pos_as_xyz
  1  'x, y, z'
loop_
 _atom_site_type_symbol
 _atom_site_label
 _atom_site_symmetry_multiplicity
 _atom_site_fract_x
 _atom_site_fract_y
 _atom_site_fract_z
 _atom_site_occupancy
  V  V1  1  0.333333  0.333333  0.500005  1
  V  V2  1  0.000000  0.000000  0.499995  1
  Cl  Cl3  1  0.013890  0.319448  0.560305  1
  Cl  Cl4  1  0.666661  0.013890  0.560305  1
  Cl  Cl5  1  0.013885  0.666672  0.439695  1
  Cl  Cl6  1  0.666672  0.319443  0.439695  1
  Cl  Cl7  1  0.319443  0.013885  0.439695  1
  Cl  Cl8  1  0.319448  0.666661  0.560305  1
