# generated using pymatgen
data_NbCrSe5
_symmetry_space_group_name_H-M   'P 1'
_cell_length_a   3.52555460
_cell_length_b   10.34625161
_cell_length_c   27.86387500
_cell_angle_alpha   90.00000000
_cell_angle_beta   90.00000000
_cell_angle_gamma   90.00000000
_symmetry_Int_Tables_number   1
_chemical_formula_structural   NbCrSe5
_chemical_formula_sum   'Nb2 Cr2 Se10'
_cell_volume   1016.37036585
_cell_formula_units_Z   2
loop_
 _symmetry_equiv_pos_site_id
 _symmetry_equiv_pos_as_xyz
  1  'x, y, z'
loop_
 _atom_site_type_symbol
 _atom_site_label
 _atom_site_symmetry_multiplicity
 _atom_site_fract_x
 _atom_site_fract_y
 _atom_site_fract_z
 _atom_site_occupancy
  Nb  Nb1  1  0.750000  0.455062  0.569563  1
  Nb  Nb2  1  0.250000  0.544938  0.430437  1
  Cr  Cr3  1  0.250000  0.132378  0.521882  1
  Cr  Cr4  1  0.750000  0.867622  0.478118  1
  Se  Se5  1  0.750000  0.628701  0.494751  1
  Se  Se6  1  0.250000  0.900375  0.541915  1
  Se  Se7  1  0.250000  0.371299  0.505249  1
  Se  Se8  1  0.750000  0.368088  0.396271  1
  Se  Se9  1  0.250000  0.631912  0.603730  1
  Se  Se10  1  0.250000  0.422391  0.640074  1
  Se  Se11  1  0.250000  0.809999  0.416827  1
  Se  Se12  1  0.750000  0.577609  0.359926  1
  Se  Se13  1  0.750000  0.190001  0.583173  1
  Se  Se14  1  0.750000  0.099625  0.458085  1
