# generated using pymatgen
data_Li2Nb(PO4)2
_symmetry_space_group_name_H-M   'P 1'
_cell_length_a   5.02581926
_cell_length_b   5.02966989
_cell_length_c   30.29715000
_cell_angle_alpha   90.00000000
_cell_angle_beta   90.00000000
_cell_angle_gamma   60.06449749
_symmetry_Int_Tables_number   1
_chemical_formula_structural   Li2Nb(PO4)2
_chemical_formula_sum   'Li2 Nb1 P2 O8'
_cell_volume   663.68292974
_cell_formula_units_Z   1
loop_
 _symmetry_equiv_pos_site_id
 _symmetry_equiv_pos_as_xyz
  1  'x, y, z'
loop_
 _atom_site_type_symbol
 _atom_site_label
 _atom_site_symmetry_multiplicity
 _atom_site_fract_x
 _atom_site_fract_y
 _atom_site_fract_z
 _atom_site_occupancy
  Li  Li1  1  0.666259  0.659500  0.336143  1
  Li  Li2  1  0.333741  0.340500  0.663857  1
  Nb  Nb3  1  0.000000  -0.000000  0.500000  1
  P  P4  1  0.666279  0.665060  0.442480  1
  P  P5  1  0.333721  0.334940  0.557520  1
  O  O6  1  0.718676  0.354883  0.461360  1
  O  O7  1  0.670714  0.661882  0.392868  1
  O  O8  1  0.353771  0.922835  0.460626  1
  O  O9  1  0.921796  0.720233  0.461616  1
  O  O10  1  0.078204  0.279767  0.538384  1
  O  O11  1  0.646229  0.077165  0.539374  1
  O  O12  1  0.329286  0.338118  0.607132  1
  O  O13  1  0.281324  0.645117  0.538640  1
