# generated using pymatgen
data_FeHO2
_symmetry_space_group_name_H-M   'P 1'
_cell_length_a   3.09152719
_cell_length_b   3.90470821
_cell_length_c   25.67903747
_cell_angle_alpha   90.00000000
_cell_angle_beta   90.00000000
_cell_angle_gamma   90.00000000
_symmetry_Int_Tables_number   1
_chemical_formula_structural   FeHO2
_chemical_formula_sum   'Fe2 H2 O4'
_cell_volume   309.98479870
_cell_formula_units_Z   2
loop_
 _symmetry_equiv_pos_site_id
 _symmetry_equiv_pos_as_xyz
  1  'x, y, z'
loop_
 _atom_site_type_symbol
 _atom_site_label
 _atom_site_symmetry_multiplicity
 _atom_site_fract_x
 _atom_site_fract_y
 _atom_site_fract_z
 _atom_site_occupancy
  Fe  Fe1  1  0.500000  0.751795  0.464121  1
  Fe  Fe2  1  0.000000  0.251795  0.535879  1
  H  H3  1  -0.000000  0.561083  0.388209  1
  H  H4  1  0.500000  0.061083  0.611791  1
  O  O5  1  -0.000000  0.750638  0.519375  1
  O  O6  1  0.500000  0.250638  0.480625  1
  O  O7  1  -0.000000  0.750987  0.412925  1
  O  O8  1  0.500000  0.250987  0.587075  1
