# generated using pymatgen
data_SbClO
_symmetry_space_group_name_H-M   'P 1'
_cell_length_a   3.77599857
_cell_length_b   3.77599857
_cell_length_c   25.24191200
_cell_angle_alpha   90.00000000
_cell_angle_beta   90.00000000
_cell_angle_gamma   90.00000000
_symmetry_Int_Tables_number   1
_chemical_formula_structural   SbClO
_chemical_formula_sum   'Sb2 Cl2 O2'
_cell_volume   359.90335128
_cell_formula_units_Z   2
loop_
 _symmetry_equiv_pos_site_id
 _symmetry_equiv_pos_as_xyz
  1  'x, y, z'
loop_
 _atom_site_type_symbol
 _atom_site_label
 _atom_site_symmetry_multiplicity
 _atom_site_fract_x
 _atom_site_fract_y
 _atom_site_fract_z
 _atom_site_occupancy
  Sb  Sb1  1  0.500000  0.000000  0.549194  1
  Sb  Sb2  1  -0.000000  0.500000  0.450806  1
  Cl  Cl3  1  -0.000000  0.500000  0.603882  1
  Cl  Cl4  1  0.500000  -0.000000  0.396118  1
  O  O5  1  -0.000000  -0.000000  0.500000  1
  O  O6  1  0.500000  0.500000  0.500000  1
