# generated using pymatgen
data_CuO2
_symmetry_space_group_name_H-M   'P 1'
_cell_length_a   2.93225907
_cell_length_b   5.08124168
_cell_length_c   19.18125408
_cell_angle_alpha   90.16090411
_cell_angle_beta   90.01540850
_cell_angle_gamma   89.95356167
_symmetry_Int_Tables_number   1
_chemical_formula_structural   CuO2
_chemical_formula_sum   'Cu2 O4'
_cell_volume   285.79018997
_cell_formula_units_Z   2
loop_
 _symmetry_equiv_pos_site_id
 _symmetry_equiv_pos_as_xyz
  1  'x, y, z'
loop_
 _atom_site_type_symbol
 _atom_site_label
 _atom_site_symmetry_multiplicity
 _atom_site_fract_x
 _atom_site_fract_y
 _atom_site_fract_z
 _atom_site_occupancy
  Cu  Cu1  1  -0.002173  0.004305  0.500014  1
  Cu  Cu2  1  0.497237  0.504021  0.499979  1
  O  O3  1  0.985696  0.671489  0.549114  1
  O  O4  1  0.510304  0.171277  0.549058  1
  O  O5  1  0.485759  0.837201  0.450872  1
  O  O6  1  0.008762  0.336775  0.450961  1
