# generated using pymatgen
data_Ba3In2Br2O5
_symmetry_space_group_name_H-M   'P 1'
_cell_length_a   4.29169743
_cell_length_b   4.29169743
_cell_length_c   30.72181831
_cell_angle_alpha   90.00000000
_cell_angle_beta   90.00000000
_cell_angle_gamma   90.00000000
_symmetry_Int_Tables_number   1
_chemical_formula_structural   Ba3In2Br2O5
_chemical_formula_sum   'Ba3 In2 Br2 O5'
_cell_volume   565.85493588
_cell_formula_units_Z   1
loop_
 _symmetry_equiv_pos_site_id
 _symmetry_equiv_pos_as_xyz
  1  'x, y, z'
loop_
 _atom_site_type_symbol
 _atom_site_label
 _atom_site_symmetry_multiplicity
 _atom_site_fract_x
 _atom_site_fract_y
 _atom_site_fract_z
 _atom_site_occupancy
  Ba  Ba1  1  0.000000  0.000000  0.367821  1
  Ba  Ba2  1  0.000000  0.000000  0.632179  1
  Ba  Ba3  1  0.000000  0.000000  0.500000  1
  In  In4  1  0.500000  0.500000  0.567820  1
  In  In5  1  0.500000  0.500000  0.432180  1
  Br  Br6  1  0.500000  0.500000  0.676502  1
  Br  Br7  1  0.500000  0.500000  0.323498  1
  O  O8  1  0.500000  0.000000  0.576762  1
  O  O9  1  0.000000  0.500000  0.423238  1
  O  O10  1  0.000000  0.500000  0.576762  1
  O  O11  1  0.500000  0.000000  0.423238  1
  O  O12  1  0.500000  0.500000  0.500000  1
