# generated using pymatgen
data_CuTe2I
_symmetry_space_group_name_H-M   'P 1'
_cell_length_a   5.19166455
_cell_length_b   8.49209971
_cell_length_c   23.27239800
_cell_angle_alpha   90.00000000
_cell_angle_beta   90.00000000
_cell_angle_gamma   90.00000000
_symmetry_Int_Tables_number   1
_chemical_formula_structural   CuTe2I
_chemical_formula_sum   'Cu2 Te4 I2'
_cell_volume   1026.03657871
_cell_formula_units_Z   2
loop_
 _symmetry_equiv_pos_site_id
 _symmetry_equiv_pos_as_xyz
  1  'x, y, z'
loop_
 _atom_site_type_symbol
 _atom_site_label
 _atom_site_symmetry_multiplicity
 _atom_site_fract_x
 _atom_site_fract_y
 _atom_site_fract_z
 _atom_site_occupancy
  Cu  Cu1  1  0.867111  0.822852  0.499976  1
  Cu  Cu2  1  0.367111  0.177148  0.500024  1
  Te  Te3  1  0.524947  0.651879  0.449265  1
  Te  Te4  1  0.024947  0.348121  0.550735  1
  Te  Te5  1  0.710226  0.346981  0.449391  1
  Te  Te6  1  0.210226  0.653019  0.550609  1
  I  I7  1  0.117682  0.999522  0.425098  1
  I  I8  1  0.617682  0.000478  0.574902  1
