# generated using pymatgen
data_LiMnF5
_symmetry_space_group_name_H-M   'P 1'
_cell_length_a   4.88510718
_cell_length_b   5.72626929
_cell_length_c   24.47797200
_cell_angle_alpha   90.00000000
_cell_angle_beta   90.00000000
_cell_angle_gamma   90.00000000
_symmetry_Int_Tables_number   1
_chemical_formula_structural   LiMnF5
_chemical_formula_sum   'Li2 Mn2 F10'
_cell_volume   684.73306205
_cell_formula_units_Z   2
loop_
 _symmetry_equiv_pos_site_id
 _symmetry_equiv_pos_as_xyz
  1  'x, y, z'
loop_
 _atom_site_type_symbol
 _atom_site_label
 _atom_site_symmetry_multiplicity
 _atom_site_fract_x
 _atom_site_fract_y
 _atom_site_fract_z
 _atom_site_occupancy
  Li  Li1  1  0.219484  0.384340  0.570817  1
  Li  Li2  1  0.719484  0.615660  0.429183  1
  Mn  Mn3  1  0.567792  0.878735  0.548069  1
  Mn  Mn4  1  0.067792  0.121265  0.451931  1
  F  F5  1  0.375065  0.670109  0.587860  1
  F  F6  1  0.854679  0.855035  0.591154  1
  F  F7  1  0.427456  0.121509  0.587265  1
  F  F8  1  0.692470  0.642324  0.504523  1
  F  F9  1  0.757469  0.101684  0.503255  1
  F  F10  1  0.257469  0.898316  0.496745  1
  F  F11  1  0.192470  0.357675  0.495477  1
  F  F12  1  0.927456  0.878491  0.412735  1
  F  F13  1  0.354679  0.144965  0.408846  1
  F  F14  1  0.875065  0.329891  0.412140  1
