# generated using pymatgen
data_Li2VO2F
_symmetry_space_group_name_H-M   'P 1'
_cell_length_a   4.07030694
_cell_length_b   3.99328691
_cell_length_c   26.55063500
_cell_angle_alpha   90.00000000
_cell_angle_beta   90.00000000
_cell_angle_gamma   90.00000000
_symmetry_Int_Tables_number   1
_chemical_formula_structural   Li2VO2F
_chemical_formula_sum   'Li4 V2 O4 F2'
_cell_volume   431.55145711
_cell_formula_units_Z   2
loop_
 _symmetry_equiv_pos_site_id
 _symmetry_equiv_pos_as_xyz
  1  'x, y, z'
loop_
 _atom_site_type_symbol
 _atom_site_label
 _atom_site_symmetry_multiplicity
 _atom_site_fract_x
 _atom_site_fract_y
 _atom_site_fract_z
 _atom_site_occupancy
  Li  Li1  1  0.500000  0.750000  0.531068  1
  Li  Li2  1  0.500000  0.250000  0.468932  1
  Li  Li3  1  0.500000  0.250000  0.618494  1
  Li  Li4  1  0.500000  0.750000  0.381506  1
  V  V5  1  -0.000000  0.250000  0.543915  1
  V  V6  1  -0.000000  0.750000  0.456085  1
  O  O7  1  0.500000  0.250000  0.548585  1
  O  O8  1  0.000000  0.750000  0.533345  1
  O  O9  1  0.000000  0.250000  0.466655  1
  O  O10  1  0.500000  0.750000  0.451415  1
  F  F11  1  0.000000  0.250000  0.622228  1
  F  F12  1  0.000000  0.750000  0.377772  1
