# generated using pymatgen
data_Mn2Ga2S5
_symmetry_space_group_name_H-M   'P 1'
_cell_length_a   3.68244123
_cell_length_b   3.68258127
_cell_length_c   32.08607300
_cell_angle_alpha   90.00000000
_cell_angle_beta   90.00000000
_cell_angle_gamma   119.99874218
_symmetry_Int_Tables_number   1
_chemical_formula_structural   Mn2Ga2S5
_chemical_formula_sum   'Mn2 Ga2 S5'
_cell_volume   376.82600611
_cell_formula_units_Z   1
loop_
 _symmetry_equiv_pos_site_id
 _symmetry_equiv_pos_as_xyz
  1  'x, y, z'
loop_
 _atom_site_type_symbol
 _atom_site_label
 _atom_site_symmetry_multiplicity
 _atom_site_fract_x
 _atom_site_fract_y
 _atom_site_fract_z
 _atom_site_occupancy
  Mn  Mn1  1  0.333575  0.667151  0.453856  1
  Mn  Mn2  1  0.666425  0.332849  0.546144  1
  Ga  Ga3  1  0.332844  0.665688  0.656922  1
  Ga  Ga4  1  0.667156  0.334312  0.343078  1
  S  S5  1  0.000000  0.000000  0.500000  1
  S  S6  1  0.333048  0.666097  0.587472  1
  S  S7  1  0.666952  0.333903  0.412528  1
  S  S8  1  0.333814  0.667629  0.311043  1
  S  S9  1  0.666186  0.332371  0.688957  1
