# generated using pymatgen
data_ScHO2
_symmetry_space_group_name_H-M   'P 1'
_cell_length_a   3.45703739
_cell_length_b   3.81072207
_cell_length_c   25.76243800
_cell_angle_alpha   90.00000000
_cell_angle_beta   90.00000000
_cell_angle_gamma   81.32382392
_symmetry_Int_Tables_number   1
_chemical_formula_structural   ScHO2
_chemical_formula_sum   'Sc2 H2 O4'
_cell_volume   335.50569295
_cell_formula_units_Z   2
loop_
 _symmetry_equiv_pos_site_id
 _symmetry_equiv_pos_as_xyz
  1  'x, y, z'
loop_
 _atom_site_type_symbol
 _atom_site_label
 _atom_site_symmetry_multiplicity
 _atom_site_fract_x
 _atom_site_fract_y
 _atom_site_fract_z
 _atom_site_occupancy
  Sc  Sc1  1  0.785957  0.238596  0.532209  1
  Sc  Sc2  1  0.519892  0.823681  0.425729  1
  H  H3  1  0.175273  0.508339  0.479308  1
  H  H4  1  0.318704  0.090098  0.612393  1
  O  O5  1  0.403285  0.314063  0.467570  1
  O  O6  1  0.867135  0.741837  0.508033  1
  O  O7  1  0.303763  0.236814  0.581213  1
  O  O8  1  0.008663  0.855904  0.393544  1
