# generated using pymatgen
data_Li2TeO3
_symmetry_space_group_name_H-M   'P 1'
_cell_length_a   5.16308396
_cell_length_b   5.43374501
_cell_length_c   24.38190000
_cell_angle_alpha   90.00000000
_cell_angle_beta   90.00000000
_cell_angle_gamma   61.63449568
_symmetry_Int_Tables_number   1
_chemical_formula_structural   Li2TeO3
_chemical_formula_sum   'Li4 Te2 O6'
_cell_volume   601.90294172
_cell_formula_units_Z   2
loop_
 _symmetry_equiv_pos_site_id
 _symmetry_equiv_pos_as_xyz
  1  'x, y, z'
loop_
 _atom_site_type_symbol
 _atom_site_label
 _atom_site_symmetry_multiplicity
 _atom_site_fract_x
 _atom_site_fract_y
 _atom_site_fract_z
 _atom_site_occupancy
  Li  Li1  1  0.155807  0.000362  0.462000  1
  Li  Li2  1  0.779127  0.000362  0.538000  1
  Li  Li3  1  0.471012  0.370817  0.462510  1
  Li  Li4  1  0.093467  0.370817  0.537490  1
  Te  Te5  1  0.822384  0.686116  0.409989  1
  Te  Te6  1  0.426796  0.686116  0.590011  1
  O  O7  1  0.465436  0.684943  0.424465  1
  O  O8  1  0.467821  0.385780  0.545431  1
  O  O9  1  0.081695  0.385780  0.454569  1
  O  O10  1  0.169045  0.984935  0.544935  1
  O  O11  1  0.781316  0.984935  0.455065  1
  O  O12  1  0.784916  0.684943  0.575535  1
