# generated using pymatgen
data_La2Si(IO2)2
_symmetry_space_group_name_H-M   'P 1'
_cell_length_a   8.58080887
_cell_length_b   8.48642183
_cell_length_c   28.08820200
_cell_angle_alpha   90.00000000
_cell_angle_beta   90.00000000
_cell_angle_gamma   90.09423569
_symmetry_Int_Tables_number   1
_chemical_formula_structural   La2Si(IO2)2
_chemical_formula_sum   'La8 Si4 I8 O16'
_cell_volume   2045.39032056
_cell_formula_units_Z   4
loop_
 _symmetry_equiv_pos_site_id
 _symmetry_equiv_pos_as_xyz
  1  'x, y, z'
loop_
 _atom_site_type_symbol
 _atom_site_label
 _atom_site_symmetry_multiplicity
 _atom_site_fract_x
 _atom_site_fract_y
 _atom_site_fract_z
 _atom_site_occupancy
  La  La1  1  0.820112  0.863170  0.576848  1
  La  La2  1  0.680094  0.363341  0.576971  1
  La  La3  1  0.813025  0.515260  0.448152  1
  La  La4  1  0.686824  0.014355  0.449018  1
  La  La5  1  0.313176  0.985645  0.550982  1
  La  La6  1  0.186975  0.484740  0.551848  1
  La  La7  1  0.319906  0.636659  0.423029  1
  La  La8  1  0.179888  0.136830  0.423152  1
  Si  Si9  1  0.055372  0.788387  0.489722  1
  Si  Si10  1  0.554884  0.710504  0.510486  1
  Si  Si11  1  0.445116  0.289496  0.489514  1
  Si  Si12  1  0.944628  0.211613  0.510278  1
  I  I13  1  0.075842  0.093711  0.636678  1
  I  I14  1  0.575767  0.411090  0.362331  1
  I  I15  1  0.567877  0.060391  0.644057  1
  I  I16  1  0.424233  0.588910  0.637669  1
  I  I17  1  0.068741  0.437894  0.355560  1
  I  I18  1  0.924158  0.906289  0.363322  1
  I  I19  1  0.432123  0.939609  0.355943  1
  I  I20  1  0.931259  0.562106  0.644440  1
  O  O21  1  0.807028  0.115043  0.538089  1
  O  O22  1  0.589771  0.707265  0.452333  1
  O  O23  1  0.909897  0.208341  0.452118  1
  O  O24  1  0.090103  0.791659  0.547882  1
  O  O25  1  0.307772  0.384844  0.461370  1
  O  O26  1  0.125950  0.158431  0.514982  1
  O  O27  1  0.874050  0.841569  0.485018  1
  O  O28  1  0.074119  0.605719  0.470920  1
  O  O29  1  0.425801  0.106185  0.471155  1
  O  O30  1  0.192972  0.884957  0.461911  1
  O  O31  1  0.410229  0.292735  0.547667  1
  O  O32  1  0.626336  0.342604  0.484640  1
  O  O33  1  0.692228  0.615156  0.538630  1
  O  O34  1  0.373664  0.657396  0.515360  1
  O  O35  1  0.925881  0.394281  0.529080  1
  O  O36  1  0.574199  0.893815  0.528845  1
