# generated using pymatgen
data_Li2P4WO13
_symmetry_space_group_name_H-M   'P 1'
_cell_length_a   5.08269322
_cell_length_b   7.97821052
_cell_length_c   32.87333700
_cell_angle_alpha   90.00000000
_cell_angle_beta   90.00000000
_cell_angle_gamma   99.41044219
_symmetry_Int_Tables_number   1
_chemical_formula_structural   Li2P4WO13
_chemical_formula_sum   'Li4 P8 W2 O26'
_cell_volume   1315.10045357
_cell_formula_units_Z   2
loop_
 _symmetry_equiv_pos_site_id
 _symmetry_equiv_pos_as_xyz
  1  'x, y, z'
loop_
 _atom_site_type_symbol
 _atom_site_label
 _atom_site_symmetry_multiplicity
 _atom_site_fract_x
 _atom_site_fract_y
 _atom_site_fract_z
 _atom_site_occupancy
  Li  Li1  1  0.923694  0.295979  0.314230  1
  Li  Li2  1  0.317769  0.163159  0.494982  1
  Li  Li3  1  0.441161  0.518614  0.505018  1
  Li  Li4  1  0.835236  0.385794  0.685770  1
  P  P5  1  0.335128  0.512910  0.649066  1
  P  P6  1  0.351461  0.790738  0.442773  1
  P  P7  1  0.079068  0.344089  0.573775  1
  P  P8  1  0.027500  0.605290  0.378293  1
  P  P9  1  0.731430  0.076483  0.621707  1
  P  P10  1  0.679862  0.337683  0.426225  1
  P  P11  1  0.407469  0.891035  0.557227  1
  P  P12  1  0.423802  0.168863  0.350934  1
  W  W13  1  0.886617  0.981669  0.396595  1
  W  W14  1  0.872313  0.700104  0.603405  1
  O  O15  1  0.291179  0.386132  0.609174  1
  O  O16  1  0.222757  0.418725  0.685964  1
  O  O17  1  0.102531  0.829802  0.560212  1
  O  O18  1  0.205886  0.943965  0.435658  1
  O  O19  1  0.215055  0.331329  0.534100  1
  O  O20  1  0.298115  0.670657  0.401323  1
  O  O21  1  0.270239  0.679976  0.478390  1
  O  O22  1  0.113663  0.118653  0.350345  1
  O  O23  1  0.207340  0.667609  0.637864  1
  O  O24  1  0.855846  0.920938  0.633794  1
  O  O25  1  0.920105  0.162186  0.585033  1
  O  O26  1  0.060121  0.484041  0.345643  1
  O  O27  1  0.876220  0.210448  0.424951  1
  O  O28  1  0.882710  0.471325  0.575049  1
  O  O29  1  0.698809  0.197732  0.654357  1
  O  O30  1  0.838825  0.519586  0.414967  1
  O  O31  1  0.903084  0.760835  0.366206  1
  O  O32  1  0.551590  0.014164  0.362136  1
  O  O33  1  0.645267  0.563120  0.649655  1
  O  O34  1  0.488691  0.001797  0.521610  1
  O  O35  1  0.460815  0.011116  0.598677  1
  O  O36  1  0.543875  0.350444  0.465900  1
  O  O37  1  0.553044  0.737808  0.564342  1
  O  O38  1  0.656399  0.851971  0.439788  1
  O  O39  1  0.536173  0.263048  0.314036  1
  O  O40  1  0.467751  0.295641  0.390826  1
