# generated using pymatgen
data_Li2Sn(PO3)4
_symmetry_space_group_name_H-M   'P 1'
_cell_length_a   7.06633911
_cell_length_b   9.22966168
_cell_length_c   26.02623500
_cell_angle_alpha   90.00000000
_cell_angle_beta   90.00000000
_cell_angle_gamma   87.01293635
_symmetry_Int_Tables_number   1
_chemical_formula_structural   Li2Sn(PO3)4
_chemical_formula_sum   'Li2 Sn1 P4 O12'
_cell_volume   1695.12269269
_cell_formula_units_Z   1
loop_
 _symmetry_equiv_pos_site_id
 _symmetry_equiv_pos_as_xyz
  1  'x, y, z'
loop_
 _atom_site_type_symbol
 _atom_site_label
 _atom_site_symmetry_multiplicity
 _atom_site_fract_x
 _atom_site_fract_y
 _atom_site_fract_z
 _atom_site_occupancy
  Li  Li1  1  0.600248  0.371989  0.528732  1
  Li  Li2  1  0.399752  0.628011  0.528732  1
  Sn  Sn3  1  -0.000000  0.000000  0.366269  1
  P  P4  1  0.929927  0.157856  0.480461  1
  P  P5  1  0.138431  0.375185  0.533453  1
  P  P6  1  0.861569  0.624815  0.533453  1
  P  P7  1  0.070073  0.842144  0.480461  1
  O  O8  1  0.909227  0.144220  0.420489  1
  O  O9  1  0.753628  0.211745  0.505610  1
  O  O10  1  0.109626  0.249592  0.487316  1
  O  O11  1  0.069620  0.321849  0.582642  1
  O  O12  1  0.336892  0.422372  0.524309  1
  O  O13  1  0.663108  0.577628  0.524309  1
  O  O14  1  -0.000000  0.500000  0.507123  1
  O  O15  1  0.000000  0.000000  0.500580  1
  O  O16  1  0.930380  0.678152  0.582642  1
  O  O17  1  0.890374  0.750408  0.487316  1
  O  O18  1  0.246372  0.788255  0.505610  1
  O  O19  1  0.090773  0.855781  0.420489  1
