# generated using pymatgen
data_CdPS3
_symmetry_space_group_name_H-M   'P 1'
_cell_length_a   6.26183868
_cell_length_b   6.26185406
_cell_length_c   23.42666663
_cell_angle_alpha   89.99585686
_cell_angle_beta   89.99171370
_cell_angle_gamma   60.00008655
_symmetry_Int_Tables_number   1
_chemical_formula_structural   CdPS3
_chemical_formula_sum   'Cd2 P2 S6'
_cell_volume   795.51123890
_cell_formula_units_Z   2
loop_
 _symmetry_equiv_pos_site_id
 _symmetry_equiv_pos_as_xyz
  1  'x, y, z'
loop_
 _atom_site_type_symbol
 _atom_site_label
 _atom_site_symmetry_multiplicity
 _atom_site_fract_x
 _atom_site_fract_y
 _atom_site_fract_z
 _atom_site_occupancy
  Cd  Cd1  1  0.666806  0.666387  0.500000  1
  Cd  Cd2  1  0.333194  0.333613  0.500000  1
  P  P3  1  0.999904  0.000000  0.451604  1
  P  P4  1  0.000096  1.000000  0.548396  1
  S  S5  1  0.999903  0.313061  0.426980  1
  S  S6  1  0.687036  0.313061  0.573020  1
  S  S7  1  0.313282  1.000000  0.572928  1
  S  S8  1  0.686718  0.000000  0.427072  1
  S  S9  1  0.000097  0.686939  0.573020  1
  S  S10  1  0.312964  0.686939  0.426980  1
