# generated using pymatgen
data_YTiF5
_symmetry_space_group_name_H-M   'P 1'
_cell_length_a   4.40646941
_cell_length_b   8.45945417
_cell_length_c   23.43752527
_cell_angle_alpha   90.00000000
_cell_angle_beta   90.00000000
_cell_angle_gamma   90.00000000
_symmetry_Int_Tables_number   1
_chemical_formula_structural   YTiF5
_chemical_formula_sum   'Y1 Ti1 F5'
_cell_volume   873.66483319
_cell_formula_units_Z   1
loop_
 _symmetry_equiv_pos_site_id
 _symmetry_equiv_pos_as_xyz
  1  'x, y, z'
loop_
 _atom_site_type_symbol
 _atom_site_label
 _atom_site_symmetry_multiplicity
 _atom_site_fract_x
 _atom_site_fract_y
 _atom_site_fract_z
 _atom_site_occupancy
  Y  Y1  1  -0.000000  -0.000000  0.500000  1
  Ti  Ti2  1  0.000000  0.500000  0.500000  1
  F  F3  1  -0.000000  -0.000000  0.588428  1
  F  F4  1  -0.000000  -0.000000  0.411572  1
  F  F5  1  -0.000000  0.717878  0.500000  1
  F  F6  1  0.000000  0.282122  0.500000  1
  F  F7  1  0.500000  -0.000000  0.500000  1
