# generated using pymatgen
data_LiSb(PO3)4
_symmetry_space_group_name_H-M   'P 1'
_cell_length_a   7.03507774
_cell_length_b   8.24133841
_cell_length_c   30.24290300
_cell_angle_alpha   90.00000000
_cell_angle_beta   90.00000000
_cell_angle_gamma   90.00000000
_symmetry_Int_Tables_number   1
_chemical_formula_structural   LiSb(PO3)4
_chemical_formula_sum   'Li2 Sb2 P8 O24'
_cell_volume   1753.43683287
_cell_formula_units_Z   2
loop_
 _symmetry_equiv_pos_site_id
 _symmetry_equiv_pos_as_xyz
  1  'x, y, z'
loop_
 _atom_site_type_symbol
 _atom_site_label
 _atom_site_symmetry_multiplicity
 _atom_site_fract_x
 _atom_site_fract_y
 _atom_site_fract_z
 _atom_site_occupancy
  Li  Li1  1  0.729797  0.613884  0.340159  1
  Li  Li2  1  0.270203  0.113884  0.659841  1
  Sb  Sb3  1  0.240325  0.765455  0.558277  1
  Sb  Sb4  1  0.759675  0.265455  0.441723  1
  P  P5  1  0.439444  0.121775  0.525014  1
  P  P6  1  0.589268  0.990813  0.608671  1
  P  P7  1  0.999710  0.603758  0.395492  1
  P  P8  1  0.000289  0.103758  0.604508  1
  P  P9  1  0.560556  0.621775  0.474986  1
  P  P10  1  0.917993  0.830266  0.470810  1
  P  P11  1  0.082007  0.330266  0.529190  1
  P  P12  1  0.410732  0.490813  0.391329  1
  O  O13  1  0.816525  0.992001  0.605989  1
  O  O14  1  0.008701  0.314357  0.482409  1
  O  O15  1  0.073613  0.486686  0.553003  1
  O  O16  1  0.470478  0.328797  0.409835  1
  O  O17  1  0.926387  0.986686  0.446997  1
  O  O18  1  0.407515  0.645218  0.508867  1
  O  O19  1  0.592485  0.145218  0.491133  1
  O  O20  1  0.529522  0.828797  0.590165  1
  O  O21  1  0.304036  0.274788  0.527028  1
  O  O22  1  0.465001  0.631094  0.427267  1
  O  O23  1  0.673655  0.467497  0.481366  1
  O  O24  1  0.991299  0.814357  0.517591  1
  O  O25  1  0.476780  0.547649  0.347274  1
  O  O26  1  0.833609  0.484998  0.397522  1
  O  O27  1  0.695964  0.774788  0.472972  1
  O  O28  1  0.534999  0.131094  0.572733  1
  O  O29  1  0.975418  0.717551  0.357684  1
  O  O30  1  0.024582  0.217551  0.642316  1
  O  O31  1  0.976637  0.187917  0.556880  1
  O  O32  1  0.023363  0.687917  0.443120  1
  O  O33  1  0.326345  0.967497  0.518634  1
  O  O34  1  0.183475  0.492001  0.394011  1
  O  O35  1  0.166391  0.984998  0.602478  1
  O  O36  1  0.523220  0.047649  0.652726  1
