# generated using pymatgen
data_CdBiS2Br
_symmetry_space_group_name_H-M   'P 1'
_cell_length_a   3.90072744
_cell_length_b   11.19528331
_cell_length_c   25.74627300
_cell_angle_alpha   90.00000000
_cell_angle_beta   90.00000000
_cell_angle_gamma   90.00000000
_symmetry_Int_Tables_number   1
_chemical_formula_structural   CdBiS2Br
_chemical_formula_sum   'Cd2 Bi2 S4 Br2'
_cell_volume   1124.33327460
_cell_formula_units_Z   2
loop_
 _symmetry_equiv_pos_site_id
 _symmetry_equiv_pos_as_xyz
  1  'x, y, z'
loop_
 _atom_site_type_symbol
 _atom_site_label
 _atom_site_symmetry_multiplicity
 _atom_site_fract_x
 _atom_site_fract_y
 _atom_site_fract_z
 _atom_site_occupancy
  Cd  Cd1  1  -0.000000  -0.000000  0.500000  1
  Cd  Cd2  1  -0.000000  0.500000  0.500000  1
  Bi  Bi3  1  0.500000  0.222450  0.414794  1
  Bi  Bi4  1  0.500000  0.777550  0.585206  1
  S  S5  1  0.500000  0.999229  0.427962  1
  S  S6  1  -0.000000  0.257463  0.482756  1
  S  S7  1  0.500000  0.000771  0.572038  1
  S  S8  1  -0.000000  0.742537  0.517244  1
  Br  Br9  1  0.500000  0.527629  0.424159  1
  Br  Br10  1  0.500000  0.472371  0.575841  1
