# generated using pymatgen
data_InAg(PS3)2
_symmetry_space_group_name_H-M   'P 1'
_cell_length_a   6.22550545
_cell_length_b   6.22550597
_cell_length_c   23.40890100
_cell_angle_alpha   90.00000000
_cell_angle_beta   90.00000000
_cell_angle_gamma   120.00000248
_symmetry_Int_Tables_number   1
_chemical_formula_structural   InAg(PS3)2
_chemical_formula_sum   'In1 Ag1 P2 S6'
_cell_volume   785.70753417
_cell_formula_units_Z   1
loop_
 _symmetry_equiv_pos_site_id
 _symmetry_equiv_pos_as_xyz
  1  'x, y, z'
loop_
 _atom_site_type_symbol
 _atom_site_label
 _atom_site_symmetry_multiplicity
 _atom_site_fract_x
 _atom_site_fract_y
 _atom_site_fract_z
 _atom_site_occupancy
  In  In1  1  0.666667  0.333333  0.500000  1
  Ag  Ag2  1  0.333333  0.666667  0.500000  1
  P  P3  1  0.000000  0.000000  0.451555  1
  P  P4  1  0.000000  0.000000  0.548445  1
  S  S5  1  0.692938  0.677234  0.572933  1
  S  S6  1  0.984297  0.307062  0.572933  1
  S  S7  1  0.322766  0.015703  0.572933  1
  S  S8  1  0.692938  0.015703  0.427067  1
  S  S9  1  0.984297  0.677234  0.427067  1
  S  S10  1  0.322766  0.307062  0.427067  1
