# generated using pymatgen
data_Mg3P2(HO)16
_symmetry_space_group_name_H-M   'P 1'
_cell_length_a   4.67507210
_cell_length_b   10.08798903
_cell_length_c   27.54647500
_cell_angle_alpha   90.00000000
_cell_angle_beta   90.00000000
_cell_angle_gamma   101.99489196
_symmetry_Int_Tables_number   1
_chemical_formula_structural   Mg3P2(HO)16
_chemical_formula_sum   'Mg3 P2 H16 O16'
_cell_volume   1270.78350369
_cell_formula_units_Z   1
loop_
 _symmetry_equiv_pos_site_id
 _symmetry_equiv_pos_as_xyz
  1  'x, y, z'
loop_
 _atom_site_type_symbol
 _atom_site_label
 _atom_site_symmetry_multiplicity
 _atom_site_fract_x
 _atom_site_fract_y
 _atom_site_fract_z
 _atom_site_occupancy
  Mg  Mg1  1  0.000000  -0.000000  0.500000  1
  Mg  Mg2  1  0.500000  0.500000  0.552945  1
  Mg  Mg3  1  0.500000  0.500000  0.447055  1
  P  P4  1  0.078783  0.685739  0.500000  1
  P  P5  1  0.921217  0.314261  0.500000  1
  H  H6  1  0.748535  0.424987  0.362250  1
  H  H7  1  0.251465  0.575013  0.362250  1
  H  H8  1  0.251465  0.575013  0.637750  1
  H  H9  1  0.748535  0.424987  0.637750  1
  H  H10  1  0.869895  0.372644  0.412424  1
  H  H11  1  0.869895  0.372644  0.587576  1
  H  H12  1  0.233631  0.188211  0.439329  1
  H  H13  1  0.766369  0.811789  0.439329  1
  H  H14  1  0.766369  0.811789  0.560671  1
  H  H15  1  0.233631  0.188211  0.560671  1
  H  H16  1  0.489371  0.121104  0.457695  1
  H  H17  1  0.510630  0.878896  0.457695  1
  H  H18  1  0.510630  0.878896  0.542305  1
  H  H19  1  0.489371  0.121104  0.542305  1
  H  H20  1  0.130105  0.627357  0.412424  1
  H  H21  1  0.130106  0.627357  0.587576  1
  O  O22  1  0.284917  0.099382  0.445509  1
  O  O23  1  0.692245  0.395354  0.604975  1
  O  O24  1  0.307756  0.604647  0.604975  1
  O  O25  1  0.307756  0.604647  0.395025  1
  O  O26  1  0.692245  0.395354  0.395025  1
  O  O27  1  0.284918  0.099383  0.554491  1
  O  O28  1  0.892915  0.648935  0.547165  1
  O  O29  1  0.107086  0.351065  0.547165  1
  O  O30  1  0.107086  0.351065  0.452835  1
  O  O31  1  0.892915  0.648935  0.452835  1
  O  O32  1  0.670047  0.393836  0.500000  1
  O  O33  1  0.329953  0.606164  0.500000  1
  O  O34  1  0.788908  0.160662  0.500000  1
  O  O35  1  0.211092  0.839338  0.500000  1
  O  O36  1  0.715083  0.900618  0.445509  1
  O  O37  1  0.715083  0.900618  0.554491  1
