# generated using pymatgen
data_Bi4I
_symmetry_space_group_name_H-M   'P 1'
_cell_length_a   4.45502774
_cell_length_b   13.30128823
_cell_length_c   33.57647964
_cell_angle_alpha   90.99565213
_cell_angle_beta   90.00000000
_cell_angle_gamma   90.00000000
_symmetry_Int_Tables_number   1
_chemical_formula_structural   Bi4I
_chemical_formula_sum   'Bi16 I4'
_cell_volume   1989.36146409
_cell_formula_units_Z   4
loop_
 _symmetry_equiv_pos_site_id
 _symmetry_equiv_pos_as_xyz
  1  'x, y, z'
loop_
 _atom_site_type_symbol
 _atom_site_label
 _atom_site_symmetry_multiplicity
 _atom_site_fract_x
 _atom_site_fract_y
 _atom_site_fract_z
 _atom_site_occupancy
  Bi  Bi1  1  -0.000000  0.939943  0.585786  1
  Bi  Bi2  1  0.000000  0.060057  0.414214  1
  Bi  Bi3  1  0.500000  0.796430  0.378153  1
  Bi  Bi4  1  0.500000  0.338533  0.449548  1
  Bi  Bi5  1  -0.000000  0.161392  0.560121  1
  Bi  Bi6  1  -0.000000  0.614119  0.490100  1
  Bi  Bi7  1  0.000000  0.838608  0.439879  1
  Bi  Bi8  1  0.000000  0.523367  0.339294  1
  Bi  Bi9  1  0.500000  0.114426  0.473513  1
  Bi  Bi10  1  0.500000  0.661467  0.550452  1
  Bi  Bi11  1  0.000000  0.385881  0.509900  1
  Bi  Bi12  1  0.500000  0.885574  0.526487  1
  Bi  Bi13  1  0.500000  0.203570  0.621847  1
  Bi  Bi14  1  0.500000  0.425423  0.599649  1
  Bi  Bi15  1  0.500000  0.574577  0.400351  1
  Bi  Bi16  1  0.000000  0.476633  0.660706  1
  I  I17  1  -0.000000  0.267253  0.699487  1
  I  I18  1  -0.000000  0.732746  0.300513  1
  I  I19  1  0.000000  0.297464  0.366113  1
  I  I20  1  0.000000  0.702536  0.633887  1
