# generated using pymatgen
data_BiP2O7
_symmetry_space_group_name_H-M   'P 1'
_cell_length_a   6.85084019
_cell_length_b   6.85867681
_cell_length_c   24.87177900
_cell_angle_alpha   90.00000000
_cell_angle_beta   90.00000000
_cell_angle_gamma   81.65272799
_symmetry_Int_Tables_number   1
_chemical_formula_structural   BiP2O7
_chemical_formula_sum   'Bi2 P4 O14'
_cell_volume   1156.28720447
_cell_formula_units_Z   2
loop_
 _symmetry_equiv_pos_site_id
 _symmetry_equiv_pos_as_xyz
  1  'x, y, z'
loop_
 _atom_site_type_symbol
 _atom_site_label
 _atom_site_symmetry_multiplicity
 _atom_site_fract_x
 _atom_site_fract_y
 _atom_site_fract_z
 _atom_site_occupancy
  Bi  Bi1  1  0.665741  0.990298  0.420765  1
  Bi  Bi2  1  0.352419  0.580617  0.579229  1
  P  P3  1  0.410417  0.068629  0.538745  1
  P  P4  1  0.607784  0.502215  0.461253  1
  P  P5  1  0.158232  0.094019  0.439306  1
  P  P6  1  0.859953  0.477068  0.560698  1
  O  O7  1  0.572952  0.325556  0.427850  1
  O  O8  1  0.963869  0.290613  0.588114  1
  O  O9  1  0.054451  0.280544  0.411896  1
  O  O10  1  0.018706  0.608606  0.550902  1
  O  O11  1  0.238467  0.154438  0.496513  1
  O  O12  1  0.336347  0.909833  0.572427  1
  O  O13  1  0.333493  0.993471  0.406710  1
  O  O14  1  0.445298  0.245264  0.572165  1
  O  O15  1  0.779751  0.416538  0.503493  1
  O  O16  1  0.594821  0.985524  0.505360  1
  O  O17  1  0.999425  0.962542  0.449088  1
  O  O18  1  0.684643  0.577567  0.593285  1
  O  O19  1  0.681745  0.661035  0.427569  1
  O  O20  1  0.423298  0.585258  0.494633  1
