# generated using pymatgen
data_MnOF
_symmetry_space_group_name_H-M   'P 1'
_cell_length_a   3.18792580
_cell_length_b   3.75824741
_cell_length_c   24.34170600
_cell_angle_alpha   90.00000000
_cell_angle_beta   90.00000000
_cell_angle_gamma   90.00000000
_symmetry_Int_Tables_number   1
_chemical_formula_structural   MnOF
_chemical_formula_sum   'Mn2 O2 F2'
_cell_volume   291.63831748
_cell_formula_units_Z   2
loop_
 _symmetry_equiv_pos_site_id
 _symmetry_equiv_pos_as_xyz
  1  'x, y, z'
loop_
 _atom_site_type_symbol
 _atom_site_label
 _atom_site_symmetry_multiplicity
 _atom_site_fract_x
 _atom_site_fract_y
 _atom_site_fract_z
 _atom_site_occupancy
  Mn  Mn1  1  0.500000  0.000000  0.539976  1
  Mn  Mn2  1  -0.000000  0.500000  0.460024  1
  O  O3  1  0.000000  -0.000000  0.479172  1
  O  O4  1  0.500000  0.500000  0.520828  1
  F  F5  1  0.000000  -0.000000  0.589108  1
  F  F6  1  0.500000  0.500000  0.410892  1
