# generated using pymatgen
data_Sr(IO3)2
_symmetry_space_group_name_H-M   'P 1'
_cell_length_a   6.11799222
_cell_length_b   6.09602972
_cell_length_c   27.66073100
_cell_angle_alpha   90.00000000
_cell_angle_beta   90.00000000
_cell_angle_gamma   90.00000000
_symmetry_Int_Tables_number   1
_chemical_formula_structural   Sr(IO3)2
_chemical_formula_sum   'Sr2 I4 O12'
_cell_volume   1031.61975296
_cell_formula_units_Z   2
loop_
 _symmetry_equiv_pos_site_id
 _symmetry_equiv_pos_as_xyz
  1  'x, y, z'
loop_
 _atom_site_type_symbol
 _atom_site_label
 _atom_site_symmetry_multiplicity
 _atom_site_fract_x
 _atom_site_fract_y
 _atom_site_fract_z
 _atom_site_occupancy
  Sr  Sr1  1  0.708116  0.920933  0.563409  1
  Sr  Sr2  1  0.208116  0.079067  0.436591  1
  I  I3  1  0.243532  0.968220  0.634616  1
  I  I4  1  0.743532  0.031780  0.365384  1
  I  I5  1  0.031317  0.385133  0.550909  1
  I  I6  1  0.531317  0.614867  0.449091  1
  O  O7  1  0.050208  0.776674  0.607312  1
  O  O8  1  0.484790  0.796813  0.640615  1
  O  O9  1  0.473141  0.846528  0.490057  1
  O  O10  1  0.847245  0.871583  0.416979  1
  O  O11  1  0.347245  0.128417  0.583021  1
  O  O12  1  0.973141  0.153472  0.509943  1
  O  O13  1  0.984790  0.203187  0.359385  1
  O  O14  1  0.550208  0.223326  0.392688  1
  O  O15  1  0.904714  0.256200  0.604185  1
  O  O16  1  0.303273  0.443299  0.470021  1
  O  O17  1  0.803273  0.556701  0.529979  1
  O  O18  1  0.404714  0.743800  0.395815  1
