# generated using pymatgen
data_K(MoO3)3
_symmetry_space_group_name_H-M   'P 1'
_cell_length_a   6.54382931
_cell_length_b   7.87655371
_cell_length_c   29.14694600
_cell_angle_alpha   90.00000000
_cell_angle_beta   90.00000000
_cell_angle_gamma   90.00000000
_symmetry_Int_Tables_number   1
_chemical_formula_structural   K(MoO3)3
_chemical_formula_sum   'K2 Mo6 O18'
_cell_volume   1502.31587952
_cell_formula_units_Z   2
loop_
 _symmetry_equiv_pos_site_id
 _symmetry_equiv_pos_as_xyz
  1  'x, y, z'
loop_
 _atom_site_type_symbol
 _atom_site_label
 _atom_site_symmetry_multiplicity
 _atom_site_fract_x
 _atom_site_fract_y
 _atom_site_fract_z
 _atom_site_occupancy
  K  K1  1  0.630621  0.000000  0.639545  1
  K  K2  1  0.369379  0.000000  0.360455  1
  Mo  Mo3  1  0.237244  0.737216  0.471069  1
  Mo  Mo4  1  0.762756  0.737216  0.528931  1
  Mo  Mo5  1  0.875619  0.000000  0.439739  1
  Mo  Mo6  1  0.124381  0.000000  0.560261  1
  Mo  Mo7  1  0.237244  0.262784  0.471069  1
  Mo  Mo8  1  0.762756  0.262784  0.528931  1
  O  O9  1  0.080191  0.235030  0.540534  1
  O  O10  1  0.919809  0.235030  0.459466  1
  O  O11  1  0.919809  0.764970  0.459466  1
  O  O12  1  0.080191  0.764970  0.540534  1
  O  O13  1  0.704061  0.268359  0.586786  1
  O  O14  1  0.295939  0.268359  0.413214  1
  O  O15  1  0.295939  0.731641  0.413214  1
  O  O16  1  0.704061  0.731641  0.586786  1
  O  O17  1  0.500000  0.761778  0.500000  1
  O  O18  1  0.500000  0.238223  0.500000  1
  O  O19  1  0.010524  0.000000  0.614717  1
  O  O20  1  0.989476  0.000000  0.385283  1
  O  O21  1  0.385004  0.000000  0.571951  1
  O  O22  1  0.614996  0.000000  0.428049  1
  O  O23  1  0.782067  0.500000  0.517302  1
  O  O24  1  0.217933  0.500000  0.482698  1
  O  O25  1  0.809138  0.000000  0.521425  1
  O  O26  1  0.190862  0.000000  0.478575  1
