# generated using pymatgen
data_TiO2
_symmetry_space_group_name_H-M   'P 1'
_cell_length_a   5.18183806
_cell_length_b   5.98602606
_cell_length_c   21.97372000
_cell_angle_alpha   90.00000000
_cell_angle_beta   90.00000000
_cell_angle_gamma   90.00000000
_symmetry_Int_Tables_number   1
_chemical_formula_structural   TiO2
_chemical_formula_sum   'Ti4 O8'
_cell_volume   681.59441938
_cell_formula_units_Z   4
loop_
 _symmetry_equiv_pos_site_id
 _symmetry_equiv_pos_as_xyz
  1  'x, y, z'
loop_
 _atom_site_type_symbol
 _atom_site_label
 _atom_site_symmetry_multiplicity
 _atom_site_fract_x
 _atom_site_fract_y
 _atom_site_fract_z
 _atom_site_occupancy
  Ti  Ti1  1  0.993037  0.750000  0.493528  1
  Ti  Ti2  1  0.006963  0.250000  0.506472  1
  Ti  Ti3  1  0.500000  0.500000  0.500000  1
  Ti  Ti4  1  0.500000  0.000000  0.500000  1
  O  O5  1  0.333272  0.750000  0.455225  1
  O  O6  1  0.666728  0.250000  0.544775  1
  O  O7  1  0.666882  0.750000  0.542997  1
  O  O8  1  0.333118  0.250000  0.457003  1
  O  O9  1  0.166991  0.500973  0.544243  1
  O  O10  1  0.833009  0.000973  0.455757  1
  O  O11  1  0.833009  0.499027  0.455757  1
  O  O12  1  0.166991  0.999027  0.544243  1
