# generated using pymatgen
data_Si3H
_symmetry_space_group_name_H-M   'P 1'
_cell_length_a   3.87310855
_cell_length_b   3.87310870
_cell_length_c   30.20125313
_cell_angle_alpha   90.00000000
_cell_angle_beta   90.00000000
_cell_angle_gamma   120.00000733
_symmetry_Int_Tables_number   1
_chemical_formula_structural   Si3H
_chemical_formula_sum   'Si6 H2'
_cell_volume   392.35113921
_cell_formula_units_Z   2
loop_
 _symmetry_equiv_pos_site_id
 _symmetry_equiv_pos_as_xyz
  1  'x, y, z'
loop_
 _atom_site_type_symbol
 _atom_site_label
 _atom_site_symmetry_multiplicity
 _atom_site_fract_x
 _atom_site_fract_y
 _atom_site_fract_z
 _atom_site_occupancy
  Si  Si1  1  0.666667  0.333333  0.513339  1
  Si  Si2  1  0.333333  0.666667  0.486661  1
  Si  Si3  1  0.666667  0.333333  0.592472  1
  Si  Si4  1  0.333333  0.666667  0.407528  1
  Si  Si5  1  0.333333  0.666667  0.618086  1
  Si  Si6  1  0.666667  0.333333  0.381914  1
  H  H7  1  0.333333  0.666667  0.668064  1
  H  H8  1  0.666667  0.333333  0.331936  1
