# generated using pymatgen
data_UTe3
_symmetry_space_group_name_H-M   'P 1'
_cell_length_a   4.20363146
_cell_length_b   6.13288980
_cell_length_c   26.91749100
_cell_angle_alpha   90.00000000
_cell_angle_beta   90.00000000
_cell_angle_gamma   90.00000000
_symmetry_Int_Tables_number   1
_chemical_formula_structural   UTe3
_chemical_formula_sum   'U2 Te6'
_cell_volume   693.94391388
_cell_formula_units_Z   2
loop_
 _symmetry_equiv_pos_site_id
 _symmetry_equiv_pos_as_xyz
  1  'x, y, z'
loop_
 _atom_site_type_symbol
 _atom_site_label
 _atom_site_symmetry_multiplicity
 _atom_site_fract_x
 _atom_site_fract_y
 _atom_site_fract_z
 _atom_site_occupancy
  U  U1  1  0.750000  0.250495  0.439897  1
  U  U2  1  0.250000  0.749505  0.560103  1
  Te  Te3  1  0.250000  0.480247  0.371029  1
  Te  Te4  1  0.250000  0.249834  0.525138  1
  Te  Te5  1  0.250000  0.018069  0.372020  1
  Te  Te6  1  0.750000  0.519753  0.628971  1
  Te  Te7  1  0.750000  0.750166  0.474862  1
  Te  Te8  1  0.750000  0.981931  0.627980  1
