# generated using pymatgen
data_Ba2TlNi2O7
_symmetry_space_group_name_H-M   'P 1'
_cell_length_a   3.66407668
_cell_length_b   3.66437067
_cell_length_c   30.69607700
_cell_angle_alpha   90.00000000
_cell_angle_beta   90.00000000
_cell_angle_gamma   90.00000000
_symmetry_Int_Tables_number   1
_chemical_formula_structural   Ba2TlNi2O7
_chemical_formula_sum   'Ba2 Tl1 Ni2 O7'
_cell_volume   412.14195585
_cell_formula_units_Z   1
loop_
 _symmetry_equiv_pos_site_id
 _symmetry_equiv_pos_as_xyz
  1  'x, y, z'
loop_
 _atom_site_type_symbol
 _atom_site_label
 _atom_site_symmetry_multiplicity
 _atom_site_fract_x
 _atom_site_fract_y
 _atom_site_fract_z
 _atom_site_occupancy
  Ba  Ba1  1  0.999320  0.500000  0.594298  1
  Ba  Ba2  1  0.999683  0.500000  0.405779  1
  Tl  Tl3  1  0.499557  0.000000  0.499994  1
  Ni  Ni4  1  0.499167  -0.000000  0.674700  1
  Ni  Ni5  1  0.499832  -0.000000  0.325181  1
  O  O6  1  0.999485  0.500000  0.500006  1
  O  O7  1  0.499190  0.500000  0.664269  1
  O  O8  1  0.999225  0.000000  0.664247  1
  O  O9  1  0.499928  0.500000  0.335681  1
  O  O10  1  0.000032  0.000000  0.335823  1
  O  O11  1  0.499349  0.000000  0.567553  1
  O  O12  1  0.499598  0.000000  0.432469  1
