# generated using pymatgen
data_Ge2Te5As2
_symmetry_space_group_name_H-M   'P 1'
_cell_length_a   4.16314035
_cell_length_b   4.16313987
_cell_length_c   33.87238400
_cell_angle_alpha   90.00000000
_cell_angle_beta   90.00000000
_cell_angle_gamma   119.99999598
_symmetry_Int_Tables_number   1
_chemical_formula_structural   Ge2Te5As2
_chemical_formula_sum   'Ge2 Te5 As2'
_cell_volume   508.41513153
_cell_formula_units_Z   1
loop_
 _symmetry_equiv_pos_site_id
 _symmetry_equiv_pos_as_xyz
  1  'x, y, z'
loop_
 _atom_site_type_symbol
 _atom_site_label
 _atom_site_symmetry_multiplicity
 _atom_site_fract_x
 _atom_site_fract_y
 _atom_site_fract_z
 _atom_site_occupancy
  Ge  Ge1  1  0.333333  0.666667  0.447115  1
  Ge  Ge2  1  0.666667  0.333333  0.552885  1
  Te  Te3  1  0.666667  0.333333  0.395731  1
  Te  Te4  1  0.333333  0.666667  0.294643  1
  Te  Te5  1  0.666667  0.333333  0.705357  1
  Te  Te6  1  -0.000000  -0.000000  0.500000  1
  Te  Te7  1  0.333333  0.666667  0.604269  1
  As  As8  1  -0.000000  -0.000000  0.340272  1
  As  As9  1  -0.000000  -0.000000  0.659728  1
