# generated using pymatgen
data_Ag2Bi2S3Cl2
_symmetry_space_group_name_H-M   'P 1'
_cell_length_a   7.23144986
_cell_length_b   11.26996545
_cell_length_c   28.78684900
_cell_angle_alpha   90.00000000
_cell_angle_beta   90.00000000
_cell_angle_gamma   89.81268907
_symmetry_Int_Tables_number   1
_chemical_formula_structural   Ag2Bi2S3Cl2
_chemical_formula_sum   'Ag8 Bi8 S12 Cl8'
_cell_volume   2346.06355323
_cell_formula_units_Z   4
loop_
 _symmetry_equiv_pos_site_id
 _symmetry_equiv_pos_as_xyz
  1  'x, y, z'
loop_
 _atom_site_type_symbol
 _atom_site_label
 _atom_site_symmetry_multiplicity
 _atom_site_fract_x
 _atom_site_fract_y
 _atom_site_fract_z
 _atom_site_occupancy
  Ag  Ag1  1  0.596639  0.752407  0.423400  1
  Ag  Ag2  1  0.091012  0.756918  0.570208  1
  Ag  Ag3  1  0.349810  0.855272  0.498030  1
  Ag  Ag4  1  0.840816  0.152536  0.501970  1
  Ag  Ag5  1  0.351668  0.356744  0.501764  1
  Ag  Ag6  1  0.838958  0.651065  0.498236  1
  Ag  Ag7  1  0.099613  0.250891  0.429792  1
  Ag  Ag8  1  0.593987  0.255402  0.576600  1
  Bi  Bi9  1  0.008092  0.917065  0.387773  1
  Bi  Bi10  1  0.189335  0.585195  0.388289  1
  Bi  Bi11  1  0.500402  0.591373  0.611497  1
  Bi  Bi12  1  0.690223  0.416436  0.388503  1
  Bi  Bi13  1  0.001290  0.422614  0.611711  1
  Bi  Bi14  1  0.182534  0.090743  0.612227  1
  Bi  Bi15  1  0.681786  0.920051  0.611978  1
  Bi  Bi16  1  0.508839  0.087757  0.388022  1
  S  S17  1  0.094829  0.256302  0.550078  1
  S  S18  1  0.482096  0.055620  0.557502  1
  S  S19  1  0.202996  0.555021  0.556337  1
  S  S20  1  0.095796  0.751507  0.449922  1
  S  S21  1  0.489366  0.551880  0.443231  1
  S  S22  1  0.979259  0.959094  0.556974  1
  S  S23  1  0.594314  0.755867  0.549267  1
  S  S24  1  0.701260  0.455929  0.556769  1
  S  S25  1  0.596311  0.251941  0.450733  1
  S  S26  1  0.987630  0.452788  0.443663  1
  S  S27  1  0.708529  0.952189  0.442498  1
  S  S28  1  0.211367  0.048715  0.443026  1
  Cl  Cl29  1  0.863540  0.162865  0.350261  1
  Cl  Cl30  1  0.829834  0.167290  0.651424  1
  Cl  Cl31  1  0.327086  0.844944  0.649739  1
  Cl  Cl32  1  0.855122  0.664337  0.650053  1
  Cl  Cl33  1  0.354538  0.348629  0.651305  1
  Cl  Cl34  1  0.335504  0.343472  0.349947  1
  Cl  Cl35  1  0.836088  0.659180  0.348695  1
  Cl  Cl36  1  0.360792  0.840519  0.348576  1
