# generated using pymatgen
data_SbF3
_symmetry_space_group_name_H-M   'P 1'
_cell_length_a   5.20869595
_cell_length_b   6.69148612
_cell_length_c   23.12308300
_cell_angle_alpha   90.00000000
_cell_angle_beta   90.00000000
_cell_angle_gamma   90.00000000
_symmetry_Int_Tables_number   1
_chemical_formula_structural   SbF3
_chemical_formula_sum   'Sb2 F6'
_cell_volume   805.93000764
_cell_formula_units_Z   2
loop_
 _symmetry_equiv_pos_site_id
 _symmetry_equiv_pos_as_xyz
  1  'x, y, z'
loop_
 _atom_site_type_symbol
 _atom_site_label
 _atom_site_symmetry_multiplicity
 _atom_site_fract_x
 _atom_site_fract_y
 _atom_site_fract_z
 _atom_site_occupancy
  Sb  Sb1  1  0.492916  0.500000  0.488145  1
  Sb  Sb2  1  0.992916  0.000000  0.511855  1
  F  F3  1  0.643159  0.500000  0.563984  1
  F  F4  1  0.143159  0.000000  0.436016  1
  F  F5  1  0.726462  0.800991  0.482627  1
  F  F6  1  0.226462  0.699009  0.517373  1
  F  F7  1  0.726462  0.199009  0.482627  1
  F  F8  1  0.226462  0.300991  0.517373  1
