# generated using pymatgen
data_Fe(CoO3)2
_symmetry_space_group_name_H-M   'P 1'
_cell_length_a   2.84770173
_cell_length_b   7.63728899
_cell_length_c   21.91752100
_cell_angle_alpha   90.00000000
_cell_angle_beta   90.00000000
_cell_angle_gamma   100.74474947
_symmetry_Int_Tables_number   1
_chemical_formula_structural   Fe(CoO3)2
_chemical_formula_sum   'Fe1 Co2 O6'
_cell_volume   468.32068654
_cell_formula_units_Z   1
loop_
 _symmetry_equiv_pos_site_id
 _symmetry_equiv_pos_as_xyz
  1  'x, y, z'
loop_
 _atom_site_type_symbol
 _atom_site_label
 _atom_site_symmetry_multiplicity
 _atom_site_fract_x
 _atom_site_fract_y
 _atom_site_fract_z
 _atom_site_occupancy
  Fe  Fe1  1  0.441088  0.882176  0.500000  1
  Co  Co2  1  0.110436  0.220872  0.497681  1
  Co  Co3  1  0.771740  0.543480  0.502319  1
  O  O4  1  0.560088  0.120176  0.453804  1
  O  O5  1  0.881126  0.762252  0.457573  1
  O  O6  1  0.218950  0.437900  0.456598  1
  O  O7  1  0.001050  0.002100  0.542427  1
  O  O8  1  0.322088  0.644176  0.546196  1
  O  O9  1  0.663226  0.326452  0.543402  1
