# generated using pymatgen
data_Hg(BiS2)2
_symmetry_space_group_name_H-M   'P 1'
_cell_length_a   4.13360071
_cell_length_b   7.44206402
_cell_length_c   24.20808600
_cell_angle_alpha   90.00000000
_cell_angle_beta   90.00000000
_cell_angle_gamma   73.88280005
_symmetry_Int_Tables_number   1
_chemical_formula_structural   Hg(BiS2)2
_chemical_formula_sum   'Hg1 Bi2 S4'
_cell_volume   715.43189653
_cell_formula_units_Z   1
loop_
 _symmetry_equiv_pos_site_id
 _symmetry_equiv_pos_as_xyz
  1  'x, y, z'
loop_
 _atom_site_type_symbol
 _atom_site_label
 _atom_site_symmetry_multiplicity
 _atom_site_fract_x
 _atom_site_fract_y
 _atom_site_fract_z
 _atom_site_occupancy
  Hg  Hg1  1  0.000000  0.000000  0.500000  1
  Bi  Bi2  1  0.293314  0.413694  0.432723  1
  Bi  Bi3  1  0.706686  0.586306  0.567277  1
  S  S4  1  0.078242  0.843491  0.588181  1
  S  S5  1  0.658313  0.683464  0.465299  1
  S  S6  1  0.341687  0.316536  0.534701  1
  S  S7  1  0.921758  0.156509  0.411819  1
