# generated using pymatgen
data_TbH2Br
_symmetry_space_group_name_H-M   'P 1'
_cell_length_a   3.77716725
_cell_length_b   3.77716713
_cell_length_c   27.12689700
_cell_angle_alpha   90.00000000
_cell_angle_beta   90.00000000
_cell_angle_gamma   59.99999885
_symmetry_Int_Tables_number   1
_chemical_formula_structural   TbH2Br
_chemical_formula_sum   'Tb2 H4 Br2'
_cell_volume   335.16847399
_cell_formula_units_Z   2
loop_
 _symmetry_equiv_pos_site_id
 _symmetry_equiv_pos_as_xyz
  1  'x, y, z'
loop_
 _atom_site_type_symbol
 _atom_site_label
 _atom_site_symmetry_multiplicity
 _atom_site_fract_x
 _atom_site_fract_y
 _atom_site_fract_z
 _atom_site_occupancy
  Tb  Tb1  1  0.333333  0.333333  0.440169  1
  Tb  Tb2  1  0.666667  0.666667  0.559831  1
  H  H3  1  0.333333  0.333333  0.522849  1
  H  H4  1  0.666667  0.666667  0.477151  1
  H  H5  1  0.000000  0.000000  0.447190  1
  H  H6  1  0.000000  0.000000  0.552810  1
  Br  Br7  1  0.333333  0.333333  0.631626  1
  Br  Br8  1  0.666667  0.666667  0.368374  1
