# generated using pymatgen
data_LiCuF4
_symmetry_space_group_name_H-M   'P 1'
_cell_length_a   3.80702131
_cell_length_b   5.10045343
_cell_length_c   29.27030400
_cell_angle_alpha   90.00000000
_cell_angle_beta   90.00000000
_cell_angle_gamma   89.83255816
_symmetry_Int_Tables_number   1
_chemical_formula_structural   LiCuF4
_chemical_formula_sum   'Li2 Cu2 F8'
_cell_volume   568.35472253
_cell_formula_units_Z   2
loop_
 _symmetry_equiv_pos_site_id
 _symmetry_equiv_pos_as_xyz
  1  'x, y, z'
loop_
 _atom_site_type_symbol
 _atom_site_label
 _atom_site_symmetry_multiplicity
 _atom_site_fract_x
 _atom_site_fract_y
 _atom_site_fract_z
 _atom_site_occupancy
  Li  Li1  1  0.485503  0.382809  0.373089  1
  Li  Li2  1  0.494054  0.882514  0.626976  1
  Cu  Cu3  1  0.502652  0.577530  0.455404  1
  Cu  Cu4  1  0.501573  0.077096  0.544669  1
  F  F5  1  0.504546  0.250931  0.426916  1
  F  F6  1  0.501195  0.890301  0.486705  1
  F  F7  1  0.001522  0.076658  0.546774  1
  F  F8  1  0.501691  0.715387  0.389046  1
  F  F9  1  0.501125  0.389720  0.513319  1
  F  F10  1  0.002517  0.576768  0.453198  1
  F  F11  1  0.501091  0.215259  0.610780  1
  F  F12  1  0.502529  0.751225  0.573124  1
