# generated using pymatgen
data_NdPb6F15
_symmetry_space_group_name_H-M   'P 1'
_cell_length_a   4.12814592
_cell_length_b   4.12814579
_cell_length_c   62.42232500
_cell_angle_alpha   90.00000000
_cell_angle_beta   90.00000000
_cell_angle_gamma   119.41558269
_symmetry_Int_Tables_number   1
_chemical_formula_structural   NdPb6F15
_chemical_formula_sum   'Nd1 Pb6 F15'
_cell_volume   926.63389900
_cell_formula_units_Z   1
loop_
 _symmetry_equiv_pos_site_id
 _symmetry_equiv_pos_as_xyz
  1  'x, y, z'
loop_
 _atom_site_type_symbol
 _atom_site_label
 _atom_site_symmetry_multiplicity
 _atom_site_fract_x
 _atom_site_fract_y
 _atom_site_fract_z
 _atom_site_occupancy
  Nd  Nd1  1  0.702052  0.297948  0.394820  1
  Pb  Pb2  1  0.034596  0.965404  0.338193  1
  Pb  Pb3  1  0.983960  0.016040  0.671888  1
  Pb  Pb4  1  0.320063  0.679937  0.616360  1
  Pb  Pb5  1  0.658220  0.341780  0.560075  1
  Pb  Pb6  1  0.340665  0.659335  0.447673  1
  Pb  Pb7  1  0.997934  0.002066  0.503703  1
  F  F8  1  0.318177  0.681823  0.656713  1
  F  F9  1  0.649513  0.350487  0.684376  1
  F  F10  1  0.655357  0.344643  0.602152  1
  F  F11  1  0.984510  0.015490  0.631570  1
  F  F12  1  0.993481  0.006519  0.545754  1
  F  F13  1  0.323124  0.676876  0.574402  1
  F  F14  1  0.334511  0.665489  0.488506  1
  F  F15  1  0.661870  0.338130  0.518093  1
  F  F16  1  0.685165  0.314835  0.433759  1
  F  F17  1  0.035468  0.964532  0.375707  1
  F  F18  1  0.009752  0.990248  0.463162  1
  F  F19  1  0.027049  0.972951  0.414568  1
  F  F20  1  0.366391  0.633609  0.395677  1
  F  F21  1  0.369297  0.630703  0.326937  1
  F  F22  1  0.700793  0.299207  0.355914  1
