# generated using pymatgen
data_Sn3F8
_symmetry_space_group_name_H-M   'P 1'
_cell_length_a   5.31868995
_cell_length_b   13.30629356
_cell_length_c   22.93830500
_cell_angle_alpha   90.00000000
_cell_angle_beta   90.00000000
_cell_angle_gamma   90.00000000
_symmetry_Int_Tables_number   1
_chemical_formula_structural   Sn3F8
_chemical_formula_sum   'Sn6 F16'
_cell_volume   1623.39086446
_cell_formula_units_Z   2
loop_
 _symmetry_equiv_pos_site_id
 _symmetry_equiv_pos_as_xyz
  1  'x, y, z'
loop_
 _atom_site_type_symbol
 _atom_site_label
 _atom_site_symmetry_multiplicity
 _atom_site_fract_x
 _atom_site_fract_y
 _atom_site_fract_z
 _atom_site_occupancy
  Sn  Sn1  1  0.534070  0.542296  0.563692  1
  Sn  Sn2  1  0.034070  0.614979  0.436308  1
  Sn  Sn3  1  0.465930  0.114979  0.436308  1
  Sn  Sn4  1  0.965930  0.042296  0.563692  1
  Sn  Sn5  1  0.500000  0.828638  0.500000  1
  Sn  Sn6  1  0.000000  0.328638  0.500000  1
  F  F7  1  0.894954  0.588454  0.521595  1
  F  F8  1  0.394954  0.568821  0.478405  1
  F  F9  1  0.105046  0.068821  0.478405  1
  F  F10  1  0.605046  0.088454  0.521595  1
  F  F11  1  0.687980  0.741190  0.444296  1
  F  F12  1  0.187980  0.416085  0.555704  1
  F  F13  1  0.972655  0.224315  0.562570  1
  F  F14  1  0.472655  0.932960  0.437430  1
  F  F15  1  0.027345  0.432960  0.437430  1
  F  F16  1  0.527345  0.724315  0.562570  1
  F  F17  1  0.819209  0.894841  0.527826  1
  F  F18  1  0.319209  0.262434  0.472174  1
  F  F19  1  0.180791  0.762434  0.472174  1
  F  F20  1  0.680791  0.394841  0.527826  1
  F  F21  1  0.812020  0.241190  0.444296  1
  F  F22  1  0.312020  0.916085  0.555704  1
