# generated using pymatgen
data_Ge(Te2As)2
_symmetry_space_group_name_H-M   'P 1'
_cell_length_a   4.13553990
_cell_length_b   4.13554009
_cell_length_c   30.39814300
_cell_angle_alpha   90.00000000
_cell_angle_beta   90.00000000
_cell_angle_gamma   60.00000151
_symmetry_Int_Tables_number   1
_chemical_formula_structural   Ge(Te2As)2
_chemical_formula_sum   'Ge1 Te4 As2'
_cell_volume   450.23799569
_cell_formula_units_Z   1
loop_
 _symmetry_equiv_pos_site_id
 _symmetry_equiv_pos_as_xyz
  1  'x, y, z'
loop_
 _atom_site_type_symbol
 _atom_site_label
 _atom_site_symmetry_multiplicity
 _atom_site_fract_x
 _atom_site_fract_y
 _atom_site_fract_z
 _atom_site_occupancy
  Ge  Ge1  1  -0.000000  -0.000000  0.500000  1
  Te  Te2  1  -0.000000  -0.000000  0.671494  1
  Te  Te3  1  0.666667  0.666667  0.441667  1
  Te  Te4  1  0.000000  0.000000  0.328506  1
  Te  Te5  1  0.333333  0.333333  0.558333  1
  As  As6  1  0.333333  0.333333  0.380127  1
  As  As7  1  0.666667  0.666667  0.619873  1
