# generated using pymatgen
data_YS
_symmetry_space_group_name_H-M   'P 1'
_cell_length_a   3.81535096
_cell_length_b   3.81535101
_cell_length_c   23.28958600
_cell_angle_alpha   90.00000000
_cell_angle_beta   90.00000000
_cell_angle_gamma   90.01291582
_symmetry_Int_Tables_number   1
_chemical_formula_structural   YS
_chemical_formula_sum   'Y2 S2'
_cell_volume   339.02423924
_cell_formula_units_Z   2
loop_
 _symmetry_equiv_pos_site_id
 _symmetry_equiv_pos_as_xyz
  1  'x, y, z'
loop_
 _atom_site_type_symbol
 _atom_site_label
 _atom_site_symmetry_multiplicity
 _atom_site_fract_x
 _atom_site_fract_y
 _atom_site_fract_z
 _atom_site_occupancy
  Y  Y1  1  0.989537  0.489537  0.549194  1
  Y  Y2  1  0.489537  0.989537  0.450806  1
  S  S3  1  0.989462  0.489462  0.429408  1
  S  S4  1  0.489462  0.989462  0.570592  1
