# generated using pymatgen
data_CaGe2WO6
_symmetry_space_group_name_H-M   'P 1'
_cell_length_a   5.63709846
_cell_length_b   8.77910127
_cell_length_c   30.41870600
_cell_angle_alpha   90.00000000
_cell_angle_beta   90.00000000
_cell_angle_gamma   90.00000000
_symmetry_Int_Tables_number   1
_chemical_formula_structural   CaGe2WO6
_chemical_formula_sum   'Ca4 Ge8 W4 O24'
_cell_volume   1505.38094562
_cell_formula_units_Z   4
loop_
 _symmetry_equiv_pos_site_id
 _symmetry_equiv_pos_as_xyz
  1  'x, y, z'
loop_
 _atom_site_type_symbol
 _atom_site_label
 _atom_site_symmetry_multiplicity
 _atom_site_fract_x
 _atom_site_fract_y
 _atom_site_fract_z
 _atom_site_occupancy
  Ca  Ca1  1  0.106961  0.420943  0.402916  1
  Ca  Ca2  1  0.393039  0.920943  0.597084  1
  Ca  Ca3  1  0.893039  0.579057  0.597084  1
  Ca  Ca4  1  0.606961  0.079057  0.402916  1
  Ge  Ge5  1  0.554823  0.361814  0.331998  1
  Ge  Ge6  1  0.945177  0.861814  0.668002  1
  Ge  Ge7  1  0.445177  0.638186  0.668002  1
  Ge  Ge8  1  0.054823  0.138186  0.331998  1
  Ge  Ge9  1  0.731736  0.349301  0.487881  1
  Ge  Ge10  1  0.768264  0.849301  0.512119  1
  Ge  Ge11  1  0.268264  0.650699  0.512119  1
  Ge  Ge12  1  0.231736  0.150699  0.487881  1
  W  W13  1  0.614815  0.661180  0.414772  1
  W  W14  1  0.885185  0.161180  0.585228  1
  W  W15  1  0.385185  0.338820  0.585228  1
  W  W16  1  0.114815  0.838820  0.414772  1
  O  O17  1  0.972675  0.239701  0.463738  1
  O  O18  1  0.527325  0.739701  0.536262  1
  O  O19  1  0.027325  0.760299  0.536262  1
  O  O20  1  0.472675  0.260299  0.463738  1
  O  O21  1  0.824775  0.279029  0.363065  1
  O  O22  1  0.675225  0.779029  0.636935  1
  O  O23  1  0.175225  0.720971  0.636935  1
  O  O24  1  0.324775  0.220971  0.363065  1
  O  O25  1  0.281117  0.973900  0.463712  1
  O  O26  1  0.218883  0.473900  0.536288  1
  O  O27  1  0.718883  0.026100  0.536288  1
  O  O28  1  0.781117  0.526100  0.463712  1
  O  O29  1  0.977958  0.004011  0.380220  1
  O  O30  1  0.522042  0.504011  0.619780  1
  O  O31  1  0.022042  0.995989  0.619780  1
  O  O32  1  0.477958  0.495989  0.380220  1
  O  O33  1  0.048774  0.337857  0.612995  1
  O  O34  1  0.451226  0.837857  0.387005  1
  O  O35  1  0.951226  0.662143  0.387005  1
  O  O36  1  0.548774  0.162143  0.612995  1
  O  O37  1  0.720775  0.346459  0.545872  1
  O  O38  1  0.779225  0.846459  0.454128  1
  O  O39  1  0.279225  0.653541  0.454128  1
  O  O40  1  0.220775  0.153541  0.545872  1
