# generated using pymatgen
data_Li2Cr2O7
_symmetry_space_group_name_H-M   'P 1'
_cell_length_a   7.33673632
_cell_length_b   10.57327443
_cell_length_c   22.11021150
_cell_angle_alpha   91.18122802
_cell_angle_beta   90.74170965
_cell_angle_gamma   73.19357324
_symmetry_Int_Tables_number   1
_chemical_formula_structural   Li2Cr2O7
_chemical_formula_sum   'Li4 Cr4 O14'
_cell_volume   1641.51040857
_cell_formula_units_Z   2
loop_
 _symmetry_equiv_pos_site_id
 _symmetry_equiv_pos_as_xyz
  1  'x, y, z'
loop_
 _atom_site_type_symbol
 _atom_site_label
 _atom_site_symmetry_multiplicity
 _atom_site_fract_x
 _atom_site_fract_y
 _atom_site_fract_z
 _atom_site_occupancy
  Li  Li1  1  0.660333  0.136396  0.576192  1
  Li  Li2  1  0.470554  0.434524  0.447236  1
  Li  Li3  1  0.789285  0.647740  0.552764  1
  Li  Li4  1  0.599506  0.945868  0.423808  1
  Cr  Cr5  1  0.945601  0.907625  0.510365  1
  Cr  Cr6  1  0.864044  0.340123  0.515684  1
  Cr  Cr7  1  0.395794  0.742140  0.484316  1
  Cr  Cr8  1  0.314237  0.174639  0.489635  1
  O  O9  1  0.886024  0.987987  0.574690  1
  O  O10  1  0.900135  0.765426  0.513435  1
  O  O11  1  0.067115  0.202462  0.502702  1
  O  O12  1  0.515024  0.697950  0.547652  1
  O  O13  1  0.727609  0.294988  0.563829  1
  O  O14  1  0.927371  0.465264  0.544298  1
  O  O15  1  0.818267  0.993750  0.455287  1
  O  O16  1  0.441572  0.088514  0.544713  1
  O  O17  1  0.332467  0.616999  0.455702  1
  O  O18  1  0.532229  0.787276  0.436171  1
  O  O19  1  0.744814  0.384313  0.452348  1
  O  O20  1  0.192724  0.879802  0.497298  1
  O  O21  1  0.359703  0.316838  0.486565  1
  O  O22  1  0.373815  0.094277  0.425310  1
