# generated using pymatgen
data_Ca(BH)2
_symmetry_space_group_name_H-M   'P 1'
_cell_length_a   3.51058536
_cell_length_b   3.51058564
_cell_length_c   23.68352100
_cell_angle_alpha   90.00000000
_cell_angle_beta   90.00000000
_cell_angle_gamma   120.00000716
_symmetry_Int_Tables_number   1
_chemical_formula_structural   Ca(BH)2
_chemical_formula_sum   'Ca1 B2 H2'
_cell_volume   252.77608218
_cell_formula_units_Z   1
loop_
 _symmetry_equiv_pos_site_id
 _symmetry_equiv_pos_as_xyz
  1  'x, y, z'
loop_
 _atom_site_type_symbol
 _atom_site_label
 _atom_site_symmetry_multiplicity
 _atom_site_fract_x
 _atom_site_fract_y
 _atom_site_fract_z
 _atom_site_occupancy
  Ca  Ca1  1  -0.000000  -0.000000  0.500000  1
  B  B2  1  0.666667  0.333333  0.415525  1
  B  B3  1  0.333333  0.666667  0.584475  1
  H  H4  1  0.666667  0.333333  0.472248  1
  H  H5  1  0.333333  0.666667  0.527752  1
