# generated using pymatgen
data_AgClO2
_symmetry_space_group_name_H-M   'P 1'
_cell_length_a   4.52638530
_cell_length_b   4.52638540
_cell_length_c   24.65073876
_cell_angle_alpha   89.97275466
_cell_angle_beta   89.97275465
_cell_angle_gamma   81.95166039
_symmetry_Int_Tables_number   1
_chemical_formula_structural   AgClO2
_chemical_formula_sum   'Ag2 Cl2 O4'
_cell_volume   500.07371089
_cell_formula_units_Z   2
loop_
 _symmetry_equiv_pos_site_id
 _symmetry_equiv_pos_as_xyz
  1  'x, y, z'
loop_
 _atom_site_type_symbol
 _atom_site_label
 _atom_site_symmetry_multiplicity
 _atom_site_fract_x
 _atom_site_fract_y
 _atom_site_fract_z
 _atom_site_occupancy
  Ag  Ag1  1  0.250074  0.250074  0.469466  1
  Ag  Ag2  1  0.749926  0.749926  0.530534  1
  Cl  Cl3  1  0.750222  0.750222  0.403508  1
  Cl  Cl4  1  0.249778  0.249778  0.596492  1
  O  O5  1  0.930494  0.930494  0.444830  1
  O  O6  1  0.069506  0.069506  0.555170  1
  O  O7  1  0.430261  0.430261  0.555180  1
  O  O8  1  0.569739  0.569739  0.444820  1
