# generated using pymatgen
data_Tl2Pt(CN)4
_symmetry_space_group_name_H-M   'P 1'
_cell_length_a   7.17180954
_cell_length_b   9.77752709
_cell_length_c   25.04230600
_cell_angle_alpha   90.00000000
_cell_angle_beta   90.00000000
_cell_angle_gamma   90.00000000
_symmetry_Int_Tables_number   1
_chemical_formula_structural   Tl2Pt(CN)4
_chemical_formula_sum   'Tl4 Pt2 C8 N8'
_cell_volume   1756.03065665
_cell_formula_units_Z   2
loop_
 _symmetry_equiv_pos_site_id
 _symmetry_equiv_pos_as_xyz
  1  'x, y, z'
loop_
 _atom_site_type_symbol
 _atom_site_label
 _atom_site_symmetry_multiplicity
 _atom_site_fract_x
 _atom_site_fract_y
 _atom_site_fract_z
 _atom_site_occupancy
  Tl  Tl1  1  0.625837  0.494088  0.575718  1
  Tl  Tl2  1  0.125837  0.005912  0.424282  1
  Tl  Tl3  1  0.374163  0.505912  0.424282  1
  Tl  Tl4  1  0.874163  0.994088  0.575718  1
  Pt  Pt5  1  -0.000000  0.500000  0.500000  1
  Pt  Pt6  1  0.500000  0.000000  0.500000  1
  C  C7  1  0.666686  0.999661  0.436001  1
  C  C8  1  0.002581  0.703418  0.498759  1
  C  C9  1  0.502581  0.796582  0.501241  1
  C  C10  1  0.833314  0.499661  0.436001  1
  C  C11  1  0.997419  0.296582  0.501241  1
  C  C12  1  0.333314  0.000339  0.563999  1
  C  C13  1  0.166686  0.500339  0.563999  1
  C  C14  1  0.497419  0.203418  0.498759  1
  N  N15  1  0.003604  0.823242  0.498050  1
  N  N16  1  0.769830  0.000328  0.399735  1
  N  N17  1  0.496396  0.323242  0.498050  1
  N  N18  1  0.269830  0.499672  0.600265  1
  N  N19  1  0.996396  0.176758  0.501950  1
  N  N20  1  0.730170  0.500328  0.399735  1
  N  N21  1  0.230170  0.999672  0.600265  1
  N  N22  1  0.503604  0.676758  0.501950  1
