# generated using pymatgen
data_LaIO
_symmetry_space_group_name_H-M   'P 1'
_cell_length_a   4.15010818
_cell_length_b   4.15010818
_cell_length_c   26.20307800
_cell_angle_alpha   90.00000000
_cell_angle_beta   90.00000000
_cell_angle_gamma   90.00000000
_symmetry_Int_Tables_number   1
_chemical_formula_structural   LaIO
_chemical_formula_sum   'La2 I2 O2'
_cell_volume   451.30603875
_cell_formula_units_Z   2
loop_
 _symmetry_equiv_pos_site_id
 _symmetry_equiv_pos_as_xyz
  1  'x, y, z'
loop_
 _atom_site_type_symbol
 _atom_site_label
 _atom_site_symmetry_multiplicity
 _atom_site_fract_x
 _atom_site_fract_y
 _atom_site_fract_z
 _atom_site_occupancy
  La  La1  1  0.500000  0.000000  0.545764  1
  La  La2  1  0.000000  0.500000  0.454236  1
  I  I3  1  0.000000  0.500000  0.618159  1
  I  I4  1  0.500000  0.000000  0.381841  1
  O  O5  1  0.000000  0.000000  0.500000  1
  O  O6  1  0.500000  0.500000  0.500000  1
