# generated using pymatgen
data_Ni(WO4)2
_symmetry_space_group_name_H-M   'P 1'
_cell_length_a   4.81066521
_cell_length_b   5.05393009
_cell_length_c   25.28744433
_cell_angle_alpha   90.51425548
_cell_angle_beta   90.81726437
_cell_angle_gamma   73.70223740
_symmetry_Int_Tables_number   1
_chemical_formula_structural   Ni(WO4)2
_chemical_formula_sum   'Ni1 W2 O8'
_cell_volume   590.03447874
_cell_formula_units_Z   1
loop_
 _symmetry_equiv_pos_site_id
 _symmetry_equiv_pos_as_xyz
  1  'x, y, z'
loop_
 _atom_site_type_symbol
 _atom_site_label
 _atom_site_symmetry_multiplicity
 _atom_site_fract_x
 _atom_site_fract_y
 _atom_site_fract_z
 _atom_site_occupancy
  Ni  Ni1  1  0.916390  0.475913  0.499997  1
  W  W2  1  0.191185  0.907297  0.454380  1
  W  W3  1  0.641599  0.044662  0.545578  1
  O  O4  1  0.307027  0.977082  0.393121  1
  O  O5  1  0.055996  0.603564  0.439317  1
  O  O6  1  0.272095  0.208415  0.506196  1
  O  O7  1  0.014803  0.767817  0.535731  1
  O  O8  1  0.776752  0.348293  0.560675  1
  O  O9  1  0.525385  0.974954  0.606925  1
  O  O10  1  0.560653  0.743453  0.493802  1
  O  O11  1  0.817879  0.184078  0.464277  1
