# generated using pymatgen
data_Zn2CrN2
_symmetry_space_group_name_H-M   'P 1'
_cell_length_a   4.45736308
_cell_length_b   5.32039530
_cell_length_c   23.29500800
_cell_angle_alpha   90.00000000
_cell_angle_beta   90.00000000
_cell_angle_gamma   114.75649034
_symmetry_Int_Tables_number   1
_chemical_formula_structural   Zn2CrN2
_chemical_formula_sum   'Zn4 Cr2 N4'
_cell_volume   501.66801991
_cell_formula_units_Z   2
loop_
 _symmetry_equiv_pos_site_id
 _symmetry_equiv_pos_as_xyz
  1  'x, y, z'
loop_
 _atom_site_type_symbol
 _atom_site_label
 _atom_site_symmetry_multiplicity
 _atom_site_fract_x
 _atom_site_fract_y
 _atom_site_fract_z
 _atom_site_occupancy
  Zn  Zn1  1  0.797000  0.592610  0.431719  1
  Zn  Zn2  1  0.205864  0.407961  0.568165  1
  Zn  Zn3  1  0.944803  0.885694  0.564492  1
  Zn  Zn4  1  0.058137  0.114843  0.435578  1
  Cr  Cr5  1  0.409714  0.818140  0.459481  1
  Cr  Cr6  1  0.593182  0.182579  0.540518  1
  N  N7  1  0.259021  0.515679  0.419772  1
  N  N8  1  0.743802  0.484814  0.580269  1
  N  N9  1  0.607271  0.211986  0.463527  1
  N  N10  1  0.395582  0.788746  0.536478  1
