# generated using pymatgen
data_OsCl2O
_symmetry_space_group_name_H-M   'P 1'
_cell_length_a   3.61128118
_cell_length_b   3.72734563
_cell_length_c   23.16851200
_cell_angle_alpha   90.00000000
_cell_angle_beta   90.00000000
_cell_angle_gamma   90.00000000
_symmetry_Int_Tables_number   1
_chemical_formula_structural   OsCl2O
_chemical_formula_sum   'Os1 Cl2 O1'
_cell_volume   311.85959649
_cell_formula_units_Z   1
loop_
 _symmetry_equiv_pos_site_id
 _symmetry_equiv_pos_as_xyz
  1  'x, y, z'
loop_
 _atom_site_type_symbol
 _atom_site_label
 _atom_site_symmetry_multiplicity
 _atom_site_fract_x
 _atom_site_fract_y
 _atom_site_fract_z
 _atom_site_occupancy
  Os  Os1  1  0.000000  0.000000  0.500000  1
  Cl  Cl2  1  0.500000  0.999978  0.569094  1
  Cl  Cl3  1  0.500000  0.000022  0.430906  1
  O  O4  1  0.000000  0.500000  0.500000  1
