# generated using pymatgen
data_Sr2GdS3
_symmetry_space_group_name_H-M   'P 1'
_cell_length_a   4.09826143
_cell_length_b   4.09826106
_cell_length_c   25.83976700
_cell_angle_alpha   90.00000000
_cell_angle_beta   90.00000000
_cell_angle_gamma   89.91728262
_symmetry_Int_Tables_number   1
_chemical_formula_structural   Sr2GdS3
_chemical_formula_sum   'Sr2 Gd1 S3'
_cell_volume   433.99769038
_cell_formula_units_Z   1
loop_
 _symmetry_equiv_pos_site_id
 _symmetry_equiv_pos_as_xyz
  1  'x, y, z'
loop_
 _atom_site_type_symbol
 _atom_site_label
 _atom_site_symmetry_multiplicity
 _atom_site_fract_x
 _atom_site_fract_y
 _atom_site_fract_z
 _atom_site_occupancy
  Sr  Sr1  1  0.494955  0.494955  0.388355  1
  Sr  Sr2  1  0.494955  0.494955  0.611645  1
  Gd  Gd3  1  0.995965  0.995965  0.500000  1
  S  S4  1  0.995416  0.995416  0.388600  1
  S  S5  1  0.995416  0.995416  0.611400  1
  S  S6  1  0.496292  0.496292  0.500000  1
