# generated using pymatgen
data_Ta(WO4)2
_symmetry_space_group_name_H-M   'P 1'
_cell_length_a   4.97679247
_cell_length_b   5.27420300
_cell_length_c   25.57518700
_cell_angle_alpha   90.00000000
_cell_angle_beta   90.00000000
_cell_angle_gamma   103.95592483
_symmetry_Int_Tables_number   1
_chemical_formula_structural   Ta(WO4)2
_chemical_formula_sum   'Ta1 W2 O8'
_cell_volume   651.49707282
_cell_formula_units_Z   1
loop_
 _symmetry_equiv_pos_site_id
 _symmetry_equiv_pos_as_xyz
  1  'x, y, z'
loop_
 _atom_site_type_symbol
 _atom_site_label
 _atom_site_symmetry_multiplicity
 _atom_site_fract_x
 _atom_site_fract_y
 _atom_site_fract_z
 _atom_site_occupancy
  Ta  Ta1  1  0.067644  0.000121  0.503228  1
  W  W2  1  0.374354  0.535082  0.550873  1
  W  W3  1  0.783758  0.453692  0.451756  1
  O  O4  1  0.494475  0.469518  0.611324  1
  O  O5  1  0.224988  0.851731  0.558891  1
  O  O6  1  0.442012  0.272109  0.492460  1
  O  O7  1  0.127800  0.714058  0.455023  1
  O  O8  1  0.909080  0.157950  0.438238  1
  O  O9  1  0.635809  0.517306  0.393859  1
  O  O10  1  0.699990  0.740069  0.506862  1
  O  O11  1  0.984927  0.306406  0.537487  1
