# generated using pymatgen
data_K2S5
_symmetry_space_group_name_H-M   'P 1'
_cell_length_a   6.63384957
_cell_length_b   8.51922779
_cell_length_c   25.19031700
_cell_angle_alpha   90.00000000
_cell_angle_beta   90.00000000
_cell_angle_gamma   90.00000000
_symmetry_Int_Tables_number   1
_chemical_formula_structural   K2S5
_chemical_formula_sum   'K4 S10'
_cell_volume   1423.63770799
_cell_formula_units_Z   2
loop_
 _symmetry_equiv_pos_site_id
 _symmetry_equiv_pos_as_xyz
  1  'x, y, z'
loop_
 _atom_site_type_symbol
 _atom_site_label
 _atom_site_symmetry_multiplicity
 _atom_site_fract_x
 _atom_site_fract_y
 _atom_site_fract_z
 _atom_site_occupancy
  K  K1  1  0.382118  0.663984  0.582736  1
  K  K2  1  0.938389  0.029591  0.532177  1
  K  K3  1  0.617882  0.163984  0.417264  1
  K  K4  1  0.061611  0.529591  0.467823  1
  S  S5  1  0.131054  0.349882  0.583939  1
  S  S6  1  0.414079  0.983900  0.516091  1
  S  S7  1  0.868946  0.849882  0.416061  1
  S  S8  1  0.867688  0.453510  0.603886  1
  S  S9  1  0.621535  0.329980  0.544017  1
  S  S10  1  0.135013  0.177767  0.421567  1
  S  S11  1  0.585921  0.483900  0.483909  1
  S  S12  1  0.864987  0.677767  0.578433  1
  S  S13  1  0.132312  0.953510  0.396114  1
  S  S14  1  0.378465  0.829980  0.455983  1
