# generated using pymatgen
data_Au2Se3O10
_symmetry_space_group_name_H-M   'P 1'
_cell_length_a   6.36456476
_cell_length_b   9.13764144
_cell_length_c   24.06031800
_cell_angle_alpha   90.00000000
_cell_angle_beta   90.00000000
_cell_angle_gamma   110.38097194
_symmetry_Int_Tables_number   1
_chemical_formula_structural   Au2Se3O10
_chemical_formula_sum   'Au2 Se3 O10'
_cell_volume   1311.68051943
_cell_formula_units_Z   1
loop_
 _symmetry_equiv_pos_site_id
 _symmetry_equiv_pos_as_xyz
  1  'x, y, z'
loop_
 _atom_site_type_symbol
 _atom_site_label
 _atom_site_symmetry_multiplicity
 _atom_site_fract_x
 _atom_site_fract_y
 _atom_site_fract_z
 _atom_site_occupancy
  Au  Au1  1  0.685605  0.317431  0.494201  1
  Au  Au2  1  0.368173  0.682569  0.494201  1
  Se  Se3  1  0.344010  1.000000  0.545438  1
  Se  Se4  1  0.878749  0.674852  0.452030  1
  Se  Se5  1  0.203896  0.325148  0.452030  1
  O  O6  1  0.254136  1.000000  0.480665  1
  O  O7  1  0.987845  0.291742  0.499415  1
  O  O8  1  0.280435  0.520309  0.431759  1
  O  O9  1  0.390100  0.344927  0.507168  1
  O  O10  1  0.045172  0.655073  0.507168  1
  O  O11  1  0.182845  1.000000  0.597298  1
  O  O12  1  0.760126  0.479691  0.431759  1
  O  O13  1  0.448191  0.846024  0.553727  1
  O  O14  1  0.696103  0.708258  0.499415  1
  O  O15  1  0.602167  0.153976  0.553727  1
