# generated using pymatgen
data_Sc2CCl2
_symmetry_space_group_name_H-M   'P 1'
_cell_length_a   3.43251466
_cell_length_b   3.43251433
_cell_length_c   25.80520500
_cell_angle_alpha   90.00000000
_cell_angle_beta   90.00000000
_cell_angle_gamma   119.99999356
_symmetry_Int_Tables_number   1
_chemical_formula_structural   Sc2CCl2
_chemical_formula_sum   'Sc2 C1 Cl2'
_cell_volume   263.30719884
_cell_formula_units_Z   1
loop_
 _symmetry_equiv_pos_site_id
 _symmetry_equiv_pos_as_xyz
  1  'x, y, z'
loop_
 _atom_site_type_symbol
 _atom_site_label
 _atom_site_symmetry_multiplicity
 _atom_site_fract_x
 _atom_site_fract_y
 _atom_site_fract_z
 _atom_site_occupancy
  Sc  Sc1  1  0.666667  0.333333  0.452212  1
  Sc  Sc2  1  0.333333  0.666667  0.547788  1
  C  C3  1  0.000000  0.000000  0.500000  1
  Cl  Cl4  1  0.666667  0.333333  0.612355  1
  Cl  Cl5  1  0.333333  0.666667  0.387645  1
