# generated using pymatgen
data_CdP2H6O7
_symmetry_space_group_name_H-M   'P 1'
_cell_length_a   6.76358656
_cell_length_b   7.58190018
_cell_length_c   28.37930000
_cell_angle_alpha   90.00000000
_cell_angle_beta   90.00000000
_cell_angle_gamma   94.85117392
_symmetry_Int_Tables_number   1
_chemical_formula_structural   CdP2H6O7
_chemical_formula_sum   'Cd2 P4 H12 O14'
_cell_volume   1450.10095381
_cell_formula_units_Z   2
loop_
 _symmetry_equiv_pos_site_id
 _symmetry_equiv_pos_as_xyz
  1  'x, y, z'
loop_
 _atom_site_type_symbol
 _atom_site_label
 _atom_site_symmetry_multiplicity
 _atom_site_fract_x
 _atom_site_fract_y
 _atom_site_fract_z
 _atom_site_occupancy
  Cd  Cd1  1  0.357616  0.170820  0.476616  1
  Cd  Cd2  1  0.642384  0.829180  0.523384  1
  P  P3  1  0.872194  0.232997  0.491063  1
  P  P4  1  0.127806  0.767003  0.508937  1
  P  P5  1  0.464561  0.411752  0.582674  1
  P  P6  1  0.535439  0.588248  0.417326  1
  H  H7  1  0.820937  0.398846  0.475111  1
  H  H8  1  0.179063  0.601154  0.524889  1
  H  H9  1  0.603824  0.299093  0.598843  1
  H  H10  1  0.396176  0.700907  0.401157  1
  H  H11  1  0.377361  0.546100  0.646735  1
  H  H12  1  0.622639  0.453900  0.353265  1
  H  H13  1  0.385882  0.112188  0.376323  1
  H  H14  1  0.614118  0.887812  0.623677  1
  H  H15  1  0.587020  0.064823  0.398933  1
  H  H16  1  0.412980  0.935177  0.601067  1
  H  H17  1  0.081628  0.283857  0.550332  1
  H  H18  1  0.918372  0.716143  0.449668  1
  O  O19  1  0.324362  0.309880  0.548496  1
  O  O20  1  0.678951  0.110839  0.490281  1
  O  O21  1  0.962991  0.828655  0.539290  1
  O  O22  1  0.037009  0.171345  0.460710  1
  O  O23  1  0.065854  0.737749  0.455520  1
  O  O24  1  0.934146  0.262251  0.544480  1
  O  O25  1  0.556735  0.964465  0.600722  1
  O  O26  1  0.443265  0.035535  0.399278  1
  O  O27  1  0.569247  0.586031  0.567946  1
  O  O28  1  0.430753  0.413969  0.432054  1
  O  O29  1  0.326325  0.443393  0.628396  1
  O  O30  1  0.673675  0.556607  0.371604  1
  O  O31  1  0.321049  0.889161  0.509719  1
  O  O32  1  0.675638  0.690120  0.451504  1
