# generated using pymatgen
data_PbBrCl
_symmetry_space_group_name_H-M   'P 1'
_cell_length_a   4.36647095
_cell_length_b   7.54681242
_cell_length_c   23.09742900
_cell_angle_alpha   90.00000000
_cell_angle_beta   90.00000000
_cell_angle_gamma   90.00000000
_symmetry_Int_Tables_number   1
_chemical_formula_structural   PbBrCl
_chemical_formula_sum   'Pb2 Br2 Cl2'
_cell_volume   761.12812725
_cell_formula_units_Z   2
loop_
 _symmetry_equiv_pos_site_id
 _symmetry_equiv_pos_as_xyz
  1  'x, y, z'
loop_
 _atom_site_type_symbol
 _atom_site_label
 _atom_site_symmetry_multiplicity
 _atom_site_fract_x
 _atom_site_fract_y
 _atom_site_fract_z
 _atom_site_occupancy
  Pb  Pb1  1  0.250000  0.749721  0.492365  1
  Pb  Pb2  1  0.750000  0.250279  0.507635  1
  Br  Br3  1  0.750000  0.556224  0.423315  1
  Br  Br4  1  0.250000  0.443776  0.576685  1
  Cl  Cl5  1  0.250000  0.105776  0.438751  1
  Cl  Cl6  1  0.750000  0.894224  0.561249  1
