# generated using pymatgen
data_U(SbO3)2
_symmetry_space_group_name_H-M   'P 1'
_cell_length_a   4.04337129
_cell_length_b   6.88877835
_cell_length_c   23.24917742
_cell_angle_alpha   89.63095289
_cell_angle_beta   90.00000002
_cell_angle_gamma   72.93387753
_symmetry_Int_Tables_number   1
_chemical_formula_structural   U(SbO3)2
_chemical_formula_sum   'U1 Sb2 O6'
_cell_volume   619.05086552
_cell_formula_units_Z   1
loop_
 _symmetry_equiv_pos_site_id
 _symmetry_equiv_pos_as_xyz
  1  'x, y, z'
loop_
 _atom_site_type_symbol
 _atom_site_label
 _atom_site_symmetry_multiplicity
 _atom_site_fract_x
 _atom_site_fract_y
 _atom_site_fract_z
 _atom_site_occupancy
  U  U1  1  0.701090  0.597820  0.500000  1
  Sb  Sb2  1  0.978650  0.042700  0.442720  1
  Sb  Sb3  1  0.423530  0.152939  0.557280  1
  O  O4  1  0.639931  0.720139  0.570853  1
  O  O5  1  0.762250  0.475500  0.429147  1
  O  O6  1  0.910178  0.179642  0.523557  1
  O  O7  1  0.282042  0.435915  0.528632  1
  O  O8  1  0.120138  0.759724  0.471368  1
  O  O9  1  0.492002  0.015997  0.476443  1
