# generated using pymatgen
data_Cr(CoO3)2
_symmetry_space_group_name_H-M   'P 1'
_cell_length_a   2.84663451
_cell_length_b   7.62824151
_cell_length_c   21.91323300
_cell_angle_alpha   90.00000000
_cell_angle_beta   90.00000000
_cell_angle_gamma   100.70910454
_symmetry_Int_Tables_number   1
_chemical_formula_structural   Cr(CoO3)2
_chemical_formula_sum   'Cr1 Co2 O6'
_cell_volume   467.55420982
_cell_formula_units_Z   1
loop_
 _symmetry_equiv_pos_site_id
 _symmetry_equiv_pos_as_xyz
  1  'x, y, z'
loop_
 _atom_site_type_symbol
 _atom_site_label
 _atom_site_symmetry_multiplicity
 _atom_site_fract_x
 _atom_site_fract_y
 _atom_site_fract_z
 _atom_site_occupancy
  Cr  Cr1  1  0.333604  0.664935  0.499499  1
  Co  Co2  1  0.002153  0.002297  0.500020  1
  Co  Co3  1  0.665779  0.328445  0.500481  1
  O  O4  1  0.448449  0.895594  0.456310  1
  O  O5  1  0.775996  0.548944  0.456096  1
  O  O6  1  0.111341  0.219730  0.457448  1
  O  O7  1  0.891055  0.780021  0.543172  1
  O  O8  1  0.219953  0.436403  0.543660  1
  O  O9  1  0.556552  0.110588  0.543314  1
