# generated using pymatgen
data_Mg2Si
_symmetry_space_group_name_H-M   'P 1'
_cell_length_a   5.79907701
_cell_length_b   5.88950850
_cell_length_c   28.82457100
_cell_angle_alpha   90.00000000
_cell_angle_beta   90.00000000
_cell_angle_gamma   113.95702572
_symmetry_Int_Tables_number   1
_chemical_formula_structural   Mg2Si
_chemical_formula_sum   'Mg8 Si4'
_cell_volume   899.65464417
_cell_formula_units_Z   4
loop_
 _symmetry_equiv_pos_site_id
 _symmetry_equiv_pos_as_xyz
  1  'x, y, z'
loop_
 _atom_site_type_symbol
 _atom_site_label
 _atom_site_symmetry_multiplicity
 _atom_site_fract_x
 _atom_site_fract_y
 _atom_site_fract_z
 _atom_site_occupancy
  Mg  Mg1  1  0.833349  0.083525  0.488654  1
  Mg  Mg2  1  0.080987  0.835898  0.352109  1
  Mg  Mg3  1  0.333033  0.083223  0.511371  1
  Mg  Mg4  1  0.586711  0.332666  0.352074  1
  Mg  Mg5  1  0.580131  0.833768  0.647913  1
  Mg  Mg6  1  0.333311  0.583469  0.465379  1
  Mg  Mg7  1  0.085578  0.330428  0.647858  1
  Mg  Mg8  1  0.833065  0.583245  0.534649  1
  Si  Si9  1  0.006761  0.783808  0.444047  1
  Si  Si10  1  0.659151  0.382469  0.444061  1
  Si  Si11  1  0.159719  0.383103  0.555942  1
  Si  Si12  1  0.507380  0.784399  0.555943  1
