# generated using pymatgen
data_MoO3
_symmetry_space_group_name_H-M   'P 1'
_cell_length_a   5.40727391
_cell_length_b   5.47027544
_cell_length_c   25.48886800
_cell_angle_alpha   90.00000000
_cell_angle_beta   90.00000000
_cell_angle_gamma   90.00000000
_symmetry_Int_Tables_number   1
_chemical_formula_structural   MoO3
_chemical_formula_sum   'Mo4 O12'
_cell_volume   753.94230400
_cell_formula_units_Z   4
loop_
 _symmetry_equiv_pos_site_id
 _symmetry_equiv_pos_as_xyz
  1  'x, y, z'
loop_
 _atom_site_type_symbol
 _atom_site_label
 _atom_site_symmetry_multiplicity
 _atom_site_fract_x
 _atom_site_fract_y
 _atom_site_fract_z
 _atom_site_occupancy
  Mo  Mo1  1  0.740537  0.985204  0.413837  1
  Mo  Mo2  1  0.259463  0.485204  0.413837  1
  Mo  Mo3  1  0.272406  0.471313  0.559827  1
  Mo  Mo4  1  0.727594  0.971313  0.559827  1
  O  O5  1  0.575038  0.686303  0.575563  1
  O  O6  1  0.514165  0.751908  0.391807  1
  O  O7  1  0.352835  0.506738  0.486226  1
  O  O8  1  0.647165  0.006738  0.486226  1
  O  O9  1  0.485835  0.251908  0.391807  1
  O  O10  1  0.424962  0.186303  0.575563  1
  O  O11  1  0.938438  0.310122  0.553064  1
  O  O12  1  0.105188  0.711104  0.606997  1
  O  O13  1  0.007431  0.719490  0.412680  1
  O  O14  1  0.992569  0.219490  0.412680  1
  O  O15  1  0.894812  0.211104  0.606997  1
  O  O16  1  0.061562  0.810122  0.553064  1
