# generated using pymatgen
data_CuHOF
_symmetry_space_group_name_H-M   'P 1'
_cell_length_a   5.32399581
_cell_length_b   6.34101234
_cell_length_c   23.58471300
_cell_angle_alpha   90.00000000
_cell_angle_beta   90.00000000
_cell_angle_gamma   90.00000000
_symmetry_Int_Tables_number   1
_chemical_formula_structural   CuHOF
_chemical_formula_sum   'Cu4 H4 O4 F4'
_cell_volume   796.20866402
_cell_formula_units_Z   4
loop_
 _symmetry_equiv_pos_site_id
 _symmetry_equiv_pos_as_xyz
  1  'x, y, z'
loop_
 _atom_site_type_symbol
 _atom_site_label
 _atom_site_symmetry_multiplicity
 _atom_site_fract_x
 _atom_site_fract_y
 _atom_site_fract_z
 _atom_site_occupancy
  Cu  Cu1  1  0.519626  0.621194  0.497062  1
  Cu  Cu2  1  0.532891  0.121194  0.502938  1
  Cu  Cu3  1  0.032891  0.378806  0.502938  1
  Cu  Cu4  1  0.019626  0.878806  0.497062  1
  H  H5  1  0.672949  0.861533  0.577066  1
  H  H6  1  0.379569  0.361533  0.422934  1
  H  H7  1  0.879569  0.138467  0.422934  1
  H  H8  1  0.172949  0.638467  0.577066  1
  O  O9  1  0.185482  0.637128  0.535758  1
  O  O10  1  0.867035  0.137128  0.464242  1
  O  O11  1  0.367035  0.362872  0.464242  1
  O  O12  1  0.685482  0.862872  0.535758  1
  F  F13  1  0.801399  0.608439  0.446399  1
  F  F14  1  0.251119  0.108439  0.553601  1
  F  F15  1  0.751119  0.391561  0.553601  1
  F  F16  1  0.301399  0.891561  0.446399  1
