# generated using pymatgen
data_AlSbO3
_symmetry_space_group_name_H-M   'P 1'
_cell_length_a   5.59538474
_cell_length_b   5.59538465
_cell_length_c   24.34239200
_cell_angle_alpha   90.00000000
_cell_angle_beta   90.00000000
_cell_angle_gamma   120.00000051
_symmetry_Int_Tables_number   1
_chemical_formula_structural   AlSbO3
_chemical_formula_sum   'Al3 Sb3 O9'
_cell_volume   660.01496519
_cell_formula_units_Z   3
loop_
 _symmetry_equiv_pos_site_id
 _symmetry_equiv_pos_as_xyz
  1  'x, y, z'
loop_
 _atom_site_type_symbol
 _atom_site_label
 _atom_site_symmetry_multiplicity
 _atom_site_fract_x
 _atom_site_fract_y
 _atom_site_fract_z
 _atom_site_occupancy
  Al  Al1  1  0.666667  0.333333  0.551085  1
  Al  Al2  1  0.333333  0.666667  0.551085  1
  Al  Al3  1  -0.000000  -0.000000  0.569833  1
  Sb  Sb4  1  0.298759  -0.000000  0.431044  1
  Sb  Sb5  1  0.701241  0.701241  0.431044  1
  Sb  Sb6  1  1.000000  0.298759  0.431044  1
  O  O7  1  0.333333  0.666667  0.399313  1
  O  O8  1  0.666667  0.333333  0.399313  1
  O  O9  1  -0.000000  -0.000000  0.494588  1
  O  O10  1  1.000000  0.487741  0.497788  1
  O  O11  1  0.512259  0.512259  0.497788  1
  O  O12  1  0.487741  -0.000000  0.497788  1
  O  O13  1  0.676207  -0.000000  0.582761  1
  O  O14  1  0.323793  0.323793  0.582761  1
  O  O15  1  0.000000  0.676207  0.582761  1
