# generated using pymatgen
data_Al2O3
_symmetry_space_group_name_H-M   'P 1'
_cell_length_a   2.89769747
_cell_length_b   5.03166245
_cell_length_c   22.89782100
_cell_angle_alpha   90.00000000
_cell_angle_beta   90.00000000
_cell_angle_gamma   90.00246950
_symmetry_Int_Tables_number   1
_chemical_formula_structural   Al2O3
_chemical_formula_sum   'Al2 O3'
_cell_volume   333.85562332
_cell_formula_units_Z   1
loop_
 _symmetry_equiv_pos_site_id
 _symmetry_equiv_pos_as_xyz
  1  'x, y, z'
loop_
 _atom_site_type_symbol
 _atom_site_label
 _atom_site_symmetry_multiplicity
 _atom_site_fract_x
 _atom_site_fract_y
 _atom_site_fract_z
 _atom_site_occupancy
  Al  Al1  1  0.790688  0.877713  0.514739  1
  Al  Al2  1  0.290789  0.298093  0.484656  1
  O  O3  1  0.290834  0.021471  0.544671  1
  O  O4  1  0.790741  0.534383  0.502304  1
  O  O5  1  0.790695  0.108658  0.453631  1
