# generated using pymatgen
data_Cu3Se2(ClO3)2
_symmetry_space_group_name_H-M   'P 1'
_cell_length_a   6.14423649
_cell_length_b   8.59849223
_cell_length_c   26.16233700
_cell_angle_alpha   90.00000000
_cell_angle_beta   90.00000000
_cell_angle_gamma   95.34455309
_symmetry_Int_Tables_number   1
_chemical_formula_structural   Cu3Se2(ClO3)2
_chemical_formula_sum   'Cu6 Se4 Cl4 O12'
_cell_volume   1376.17790542
_cell_formula_units_Z   2
loop_
 _symmetry_equiv_pos_site_id
 _symmetry_equiv_pos_as_xyz
  1  'x, y, z'
loop_
 _atom_site_type_symbol
 _atom_site_label
 _atom_site_symmetry_multiplicity
 _atom_site_fract_x
 _atom_site_fract_y
 _atom_site_fract_z
 _atom_site_occupancy
  Cu  Cu1  1  0.821572  0.544552  0.403574  1
  Cu  Cu2  1  0.514200  0.333827  0.469936  1
  Cu  Cu3  1  0.000752  0.374614  0.596426  1
  Cu  Cu4  1  0.713186  0.026444  0.530028  1
  Cu  Cu5  1  0.308125  0.585339  0.530064  1
  Cu  Cu6  1  0.109139  0.892722  0.469972  1
  Se  Se7  1  0.323638  0.645949  0.401773  1
  Se  Se8  1  0.498687  0.273217  0.598227  1
  Se  Se9  1  0.040742  0.240592  0.438531  1
  Se  Se10  1  0.781583  0.678574  0.561469  1
  Cl  Cl11  1  0.429400  0.889753  0.570295  1
  Cl  Cl12  1  0.392925  0.029413  0.429705  1
  Cl  Cl13  1  0.840009  0.795789  0.384187  1
  Cl  Cl14  1  0.982315  0.123377  0.615813  1
  O  O15  1  0.112460  0.511339  0.383799  1
  O  O16  1  0.879695  0.841135  0.523378  1
  O  O17  1  0.204919  0.340813  0.483120  1
  O  O18  1  0.709864  0.407826  0.616201  1
  O  O19  1  0.582668  0.225059  0.535435  1
  O  O20  1  0.313261  0.412156  0.586287  1
  O  O21  1  0.942630  0.078031  0.476622  1
  O  O22  1  0.805993  0.344260  0.441392  1
  O  O23  1  0.617406  0.578353  0.516880  1
  O  O24  1  0.239657  0.694107  0.464565  1
  O  O25  1  0.016332  0.574906  0.558608  1
  O  O26  1  0.509064  0.507010  0.413713  1
