# generated using pymatgen
data_U2S
_symmetry_space_group_name_H-M   'P 1'
_cell_length_a   6.17298918
_cell_length_b   6.91740818
_cell_length_c   20.20646400
_cell_angle_alpha   90.00000000
_cell_angle_beta   90.00000000
_cell_angle_gamma   73.76374318
_symmetry_Int_Tables_number   1
_chemical_formula_structural   U2S
_chemical_formula_sum   'U4 S2'
_cell_volume   828.42534251
_cell_formula_units_Z   2
loop_
 _symmetry_equiv_pos_site_id
 _symmetry_equiv_pos_as_xyz
  1  'x, y, z'
loop_
 _atom_site_type_symbol
 _atom_site_label
 _atom_site_symmetry_multiplicity
 _atom_site_fract_x
 _atom_site_fract_y
 _atom_site_fract_z
 _atom_site_occupancy
  U  U1  1  0.434947  0.261018  0.497467  1
  U  U2  1  0.435306  0.760770  0.503708  1
  U  U3  1  0.726069  0.938146  0.498521  1
  U  U4  1  0.726216  0.438027  0.501085  1
  S  S5  1  0.080414  0.599720  0.494500  1
  S  S6  1  0.080853  0.099546  0.504719  1
