# generated using pymatgen
data_CeP3H8O7
_symmetry_space_group_name_H-M   'P 1'
_cell_length_a   7.08063245
_cell_length_b   9.58539863
_cell_length_c   28.17828300
_cell_angle_alpha   90.00000000
_cell_angle_beta   90.00000000
_cell_angle_gamma   110.45836343
_symmetry_Int_Tables_number   1
_chemical_formula_structural   CeP3H8O7
_chemical_formula_sum   'Ce2 P6 H16 O14'
_cell_volume   1791.85246653
_cell_formula_units_Z   2
loop_
 _symmetry_equiv_pos_site_id
 _symmetry_equiv_pos_as_xyz
  1  'x, y, z'
loop_
 _atom_site_type_symbol
 _atom_site_label
 _atom_site_symmetry_multiplicity
 _atom_site_fract_x
 _atom_site_fract_y
 _atom_site_fract_z
 _atom_site_occupancy
  Ce  Ce1  1  0.659249  0.848683  0.486567  1
  Ce  Ce2  1  0.340751  0.151317  0.513433  1
  P  P3  1  0.132729  0.753898  0.521023  1
  P  P4  1  0.867271  0.246102  0.478977  1
  P  P5  1  0.929091  0.964383  0.600992  1
  P  P6  1  0.070909  0.035617  0.399008  1
  P  P7  1  0.499639  0.520127  0.567389  1
  P  P8  1  0.500361  0.479873  0.432611  1
  H  H9  1  0.126513  0.639763  0.488479  1
  H  H10  1  0.873487  0.360237  0.511521  1
  H  H11  1  0.122867  0.687841  0.566455  1
  H  H12  1  0.877133  0.312159  0.433545  1
  H  H13  1  0.902931  0.026207  0.645339  1
  H  H14  1  0.097069  0.973793  0.354661  1
  H  H15  1  0.900763  0.814058  0.612795  1
  H  H16  1  0.099237  0.185942  0.387205  1
  H  H17  1  0.490253  0.573003  0.614225  1
  H  H18  1  0.509747  0.426997  0.385775  1
  H  H19  1  0.702419  0.524572  0.563634  1
  H  H20  1  0.297581  0.475428  0.436366  1
  H  H21  1  0.337198  0.900343  0.422635  1
  H  H22  1  0.662802  0.099657  0.577365  1
  H  H23  1  0.450700  0.813641  0.390833  1
  H  H24  1  0.549300  0.186359  0.609167  1
  O  O25  1  0.948212  0.798073  0.514340  1
  O  O26  1  0.051788  0.201927  0.485660  1
  O  O27  1  0.334264  0.882057  0.516103  1
  O  O28  1  0.665736  0.117943  0.483897  1
  O  O29  1  0.755147  0.965920  0.569062  1
  O  O30  1  0.244853  0.034080  0.430938  1
  O  O31  1  0.143063  0.041108  0.584138  1
  O  O32  1  0.856937  0.958892  0.415862  1
  O  O33  1  0.357080  0.360630  0.564540  1
  O  O34  1  0.642920  0.639370  0.435460  1
  O  O35  1  0.469273  0.632482  0.532794  1
  O  O36  1  0.530727  0.367518  0.467206  1
  O  O37  1  0.392318  0.816520  0.421939  1
  O  O38  1  0.607682  0.183480  0.578061  1
