# generated using pymatgen
data_Fe3(O2F)2
_symmetry_space_group_name_H-M   'P 1'
_cell_length_a   2.98776234
_cell_length_b   6.61083931
_cell_length_c   29.22988500
_cell_angle_alpha   90.00000000
_cell_angle_beta   90.00000000
_cell_angle_gamma   90.00000000
_symmetry_Int_Tables_number   1
_chemical_formula_structural   Fe3(O2F)2
_chemical_formula_sum   'Fe6 O8 F4'
_cell_volume   577.33748547
_cell_formula_units_Z   2
loop_
 _symmetry_equiv_pos_site_id
 _symmetry_equiv_pos_as_xyz
  1  'x, y, z'
loop_
 _atom_site_type_symbol
 _atom_site_label
 _atom_site_symmetry_multiplicity
 _atom_site_fract_x
 _atom_site_fract_y
 _atom_site_fract_z
 _atom_site_occupancy
  Fe  Fe1  1  -0.000000  0.499430  0.610428  1
  Fe  Fe2  1  0.500000  0.999466  0.608719  1
  Fe  Fe3  1  0.000000  0.999652  0.499948  1
  Fe  Fe4  1  0.500000  0.999828  0.391183  1
  Fe  Fe5  1  0.500000  0.499660  0.500041  1
  Fe  Fe6  1  -0.000000  0.499861  0.389677  1
  O  O7  1  -0.000000  0.186742  0.615685  1
  O  O8  1  -0.000000  0.812143  0.615639  1
  O  O9  1  0.500000  0.999702  0.542175  1
  O  O10  1  0.500000  0.999549  0.457737  1
  O  O11  1  0.500000  0.499363  0.565773  1
  O  O12  1  -0.000000  0.812604  0.384217  1
  O  O13  1  0.500000  0.499884  0.434324  1
  O  O14  1  -0.000000  0.187094  0.384267  1
  F  F15  1  -0.000000  0.303742  0.499985  1
  F  F16  1  -0.000000  0.695543  0.500080  1
  F  F17  1  0.500000  0.499456  0.654971  1
  F  F18  1  0.500000  0.499805  0.345149  1
