# generated using pymatgen
data_Na2HfN2
_symmetry_space_group_name_H-M   'P 1'
_cell_length_a   3.31891755
_cell_length_b   3.31891752
_cell_length_c   25.23732900
_cell_angle_alpha   90.00000000
_cell_angle_beta   90.00000000
_cell_angle_gamma   120.00000020
_symmetry_Int_Tables_number   1
_chemical_formula_structural   Na2HfN2
_chemical_formula_sum   'Na2 Hf1 N2'
_cell_volume   240.75035905
_cell_formula_units_Z   1
loop_
 _symmetry_equiv_pos_site_id
 _symmetry_equiv_pos_as_xyz
  1  'x, y, z'
loop_
 _atom_site_type_symbol
 _atom_site_label
 _atom_site_symmetry_multiplicity
 _atom_site_fract_x
 _atom_site_fract_y
 _atom_site_fract_z
 _atom_site_occupancy
  Na  Na1  1  0.666667  0.333333  0.398784  1
  Na  Na2  1  0.333333  0.666667  0.601216  1
  Hf  Hf3  1  0.000000  0.000000  0.500000  1
  N  N4  1  0.666667  0.333333  0.545539  1
  N  N5  1  0.333333  0.666667  0.454461  1
