# generated using pymatgen
data_P2H4PbO4
_symmetry_space_group_name_H-M   'P 1'
_cell_length_a   5.98758053
_cell_length_b   6.00933530
_cell_length_c   26.17806200
_cell_angle_alpha   90.00000000
_cell_angle_beta   90.00000000
_cell_angle_gamma   90.00000000
_symmetry_Int_Tables_number   1
_chemical_formula_structural   P2H4PbO4
_chemical_formula_sum   'P4 H8 Pb2 O8'
_cell_volume   941.92277137
_cell_formula_units_Z   2
loop_
 _symmetry_equiv_pos_site_id
 _symmetry_equiv_pos_as_xyz
  1  'x, y, z'
loop_
 _atom_site_type_symbol
 _atom_site_label
 _atom_site_symmetry_multiplicity
 _atom_site_fract_x
 _atom_site_fract_y
 _atom_site_fract_z
 _atom_site_occupancy
  P  P1  1  0.249622  0.752045  0.416106  1
  P  P2  1  0.250378  0.752045  0.583894  1
  P  P3  1  0.750378  0.247956  0.583894  1
  P  P4  1  0.749622  0.247956  0.416106  1
  H  H5  1  0.617465  0.374277  0.617951  1
  H  H6  1  0.382535  0.625724  0.382049  1
  H  H7  1  0.117465  0.625724  0.617951  1
  H  H8  1  0.882535  0.374277  0.382049  1
  H  H9  1  0.119340  0.883460  0.382451  1
  H  H10  1  0.380660  0.883460  0.617549  1
  H  H11  1  0.619340  0.116540  0.382451  1
  H  H12  1  0.880660  0.116540  0.617549  1
  Pb  Pb13  1  0.250000  0.250329  0.500000  1
  Pb  Pb14  1  0.750000  0.749671  0.500000  1
  O  O15  1  0.098299  0.904469  0.552723  1
  O  O16  1  0.401701  0.904469  0.447277  1
  O  O17  1  0.595822  0.403699  0.445846  1
  O  O18  1  0.095822  0.596301  0.445846  1
  O  O19  1  0.904178  0.403699  0.554154  1
  O  O20  1  0.404178  0.596301  0.554154  1
  O  O21  1  0.901701  0.095531  0.447277  1
  O  O22  1  0.598299  0.095531  0.552723  1
