# generated using pymatgen
data_SmZnPO
_symmetry_space_group_name_H-M   'P 1'
_cell_length_a   3.95266763
_cell_length_b   3.95266699
_cell_length_c   28.46507800
_cell_angle_alpha   90.00000000
_cell_angle_beta   90.00000000
_cell_angle_gamma   60.00000295
_symmetry_Int_Tables_number   1
_chemical_formula_structural   SmZnPO
_chemical_formula_sum   'Sm2 Zn2 P2 O2'
_cell_volume   385.14436403
_cell_formula_units_Z   2
loop_
 _symmetry_equiv_pos_site_id
 _symmetry_equiv_pos_as_xyz
  1  'x, y, z'
loop_
 _atom_site_type_symbol
 _atom_site_label
 _atom_site_symmetry_multiplicity
 _atom_site_fract_x
 _atom_site_fract_y
 _atom_site_fract_z
 _atom_site_occupancy
  Sm  Sm1  1  0.333333  0.333333  0.448038  1
  Sm  Sm2  1  0.666667  0.666667  0.551962  1
  Zn  Zn3  1  0.333333  0.333333  0.643396  1
  Zn  Zn4  1  0.666667  0.666667  0.356604  1
  P  P5  1  0.000000  -0.000000  0.372449  1
  P  P6  1  0.000000  -0.000000  0.627551  1
  O  O7  1  0.666667  0.666667  0.469103  1
  O  O8  1  0.333333  0.333333  0.530897  1
