# generated using pymatgen
data_Re3(TeBr)7
_symmetry_space_group_name_H-M   'P 1'
_cell_length_a   10.36550718
_cell_length_b   10.36550765
_cell_length_c   28.90957400
_cell_angle_alpha   90.00000000
_cell_angle_beta   90.00000000
_cell_angle_gamma   60.00000151
_symmetry_Int_Tables_number   1
_chemical_formula_structural   Re3(TeBr)7
_chemical_formula_sum   'Re6 Te14 Br14'
_cell_volume   2690.00733204
_cell_formula_units_Z   2
loop_
 _symmetry_equiv_pos_site_id
 _symmetry_equiv_pos_as_xyz
  1  'x, y, z'
loop_
 _atom_site_type_symbol
 _atom_site_label
 _atom_site_symmetry_multiplicity
 _atom_site_fract_x
 _atom_site_fract_y
 _atom_site_fract_z
 _atom_site_occupancy
  Re  Re1  1  0.640202  0.530670  0.538772  1
  Re  Re2  1  0.504205  0.693131  0.461228  1
  Re  Re3  1  0.693131  0.802663  0.461228  1
  Re  Re4  1  0.829128  0.640202  0.538772  1
  Re  Re5  1  0.802663  0.504205  0.461228  1
  Re  Re6  1  0.530670  0.829128  0.538772  1
  Te  Te7  1  0.718812  0.941153  0.538106  1
  Te  Te8  1  0.606380  0.333989  0.590637  1
  Te  Te9  1  0.993298  0.614522  0.461894  1
  Te  Te10  1  0.333989  0.059631  0.590637  1
  Te  Te11  1  0.941153  0.340036  0.538106  1
  Te  Te12  1  0.726953  0.999344  0.409363  1
  Te  Te13  1  0.999344  0.273702  0.409363  1
  Te  Te14  1  0.666667  0.666667  0.384342  1
  Te  Te15  1  0.273702  0.726953  0.409363  1
  Te  Te16  1  0.614522  0.392181  0.461894  1
  Te  Te17  1  0.059631  0.606380  0.590637  1
  Te  Te18  1  0.392181  0.993298  0.461894  1
  Te  Te19  1  0.666667  0.666667  0.615658  1
  Te  Te20  1  0.340036  0.718812  0.538106  1
  Br  Br21  1  0.838923  0.247097  0.346599  1
  Br  Br22  1  0.494410  0.086236  0.653401  1
  Br  Br23  1  0.936820  0.827214  0.648142  1
  Br  Br24  1  -0.000000  0.000000  0.465039  1
  Br  Br25  1  0.827214  0.235966  0.648142  1
  Br  Br26  1  0.506119  0.097367  0.351858  1
  Br  Br27  1  0.333333  0.333333  0.534961  1
  Br  Br28  1  0.235966  0.936820  0.648142  1
  Br  Br29  1  0.097367  0.396513  0.351858  1
  Br  Br30  1  0.247097  0.913980  0.346599  1
  Br  Br31  1  0.086236  0.419353  0.653401  1
  Br  Br32  1  0.419353  0.494410  0.653401  1
  Br  Br33  1  0.913980  0.838923  0.346599  1
  Br  Br34  1  0.396513  0.506119  0.351858  1
