# generated using pymatgen
data_SnI2
_symmetry_space_group_name_H-M   'P 1'
_cell_length_a   4.49540392
_cell_length_b   11.89654622
_cell_length_c   24.43264000
_cell_angle_alpha   90.00000000
_cell_angle_beta   90.00000000
_cell_angle_gamma   79.10922227
_symmetry_Int_Tables_number   1
_chemical_formula_structural   SnI2
_chemical_formula_sum   'Sn3 I6'
_cell_volume   1283.11828968
_cell_formula_units_Z   3
loop_
 _symmetry_equiv_pos_site_id
 _symmetry_equiv_pos_as_xyz
  1  'x, y, z'
loop_
 _atom_site_type_symbol
 _atom_site_label
 _atom_site_symmetry_multiplicity
 _atom_site_fract_x
 _atom_site_fract_y
 _atom_site_fract_z
 _atom_site_occupancy
  Sn  Sn1  1  0.000000  0.000000  0.500000  1
  Sn  Sn2  1  0.332808  0.334384  0.502367  1
  Sn  Sn3  1  0.667192  0.665616  0.497633  1
  I  I4  1  0.112392  0.775215  0.575359  1
  I  I5  1  0.887608  0.224785  0.424641  1
  I  I6  1  0.224767  0.550466  0.421309  1
  I  I7  1  0.775233  0.449534  0.578691  1
  I  I8  1  0.445447  0.109107  0.577895  1
  I  I9  1  0.554553  0.890893  0.422105  1
