# generated using pymatgen
data_Te3SeO8
_symmetry_space_group_name_H-M   'P 1'
_cell_length_a   4.91341472
_cell_length_b   6.89574432
_cell_length_c   29.78072200
_cell_angle_alpha   90.00000000
_cell_angle_beta   90.00000000
_cell_angle_gamma   69.88726419
_symmetry_Int_Tables_number   1
_chemical_formula_structural   Te3SeO8
_chemical_formula_sum   'Te6 Se2 O16'
_cell_volume   947.48782513
_cell_formula_units_Z   2
loop_
 _symmetry_equiv_pos_site_id
 _symmetry_equiv_pos_as_xyz
  1  'x, y, z'
loop_
 _atom_site_type_symbol
 _atom_site_label
 _atom_site_symmetry_multiplicity
 _atom_site_fract_x
 _atom_site_fract_y
 _atom_site_fract_z
 _atom_site_occupancy
  Te  Te1  1  0.526835  0.760061  0.527092  1
  Te  Te2  1  0.473165  0.239939  0.472908  1
  Te  Te3  1  0.203619  0.548902  0.617144  1
  Te  Te4  1  0.796381  0.451098  0.382856  1
  Te  Te5  1  0.917738  0.186342  0.574948  1
  Te  Te6  1  0.082262  0.813658  0.425052  1
  Se  Se7  1  0.482166  0.941194  0.655578  1
  Se  Se8  1  0.517834  0.058806  0.344422  1
  O  O9  1  0.608874  0.383077  0.616014  1
  O  O10  1  0.391126  0.616923  0.383986  1
  O  O11  1  0.316494  0.759413  0.663893  1
  O  O12  1  0.683506  0.240587  0.336107  1
  O  O13  1  0.686549  0.856935  0.607723  1
  O  O14  1  0.313451  0.143065  0.392277  1
  O  O15  1  0.660742  0.328639  0.521879  1
  O  O16  1  0.339258  0.671361  0.478121  1
  O  O17  1  0.721956  0.952278  0.475456  1
  O  O18  1  0.278044  0.047722  0.524544  1
  O  O19  1  0.933368  0.591145  0.435052  1
  O  O20  1  0.066632  0.408855  0.564948  1
  O  O21  1  0.780153  0.265334  0.431234  1
  O  O22  1  0.219847  0.734666  0.568766  1
  O  O23  1  0.806673  0.844982  0.363468  1
  O  O24  1  0.193327  0.155018  0.636532  1
