# generated using pymatgen
data_Ag2CO3
_symmetry_space_group_name_H-M   'P 1'
_cell_length_a   3.15173923
_cell_length_b   9.48733982
_cell_length_c   24.02648000
_cell_angle_alpha   90.00000000
_cell_angle_beta   90.00000000
_cell_angle_gamma   90.00000000
_symmetry_Int_Tables_number   1
_chemical_formula_structural   Ag2CO3
_chemical_formula_sum   'Ag4 C2 O6'
_cell_volume   718.43070130
_cell_formula_units_Z   2
loop_
 _symmetry_equiv_pos_site_id
 _symmetry_equiv_pos_as_xyz
  1  'x, y, z'
loop_
 _atom_site_type_symbol
 _atom_site_label
 _atom_site_symmetry_multiplicity
 _atom_site_fract_x
 _atom_site_fract_y
 _atom_site_fract_z
 _atom_site_occupancy
  Ag  Ag1  1  0.187557  0.433838  0.543832  1
  Ag  Ag2  1  0.562259  0.933838  0.456168  1
  Ag  Ag3  1  0.562259  0.566162  0.456168  1
  Ag  Ag4  1  0.187557  0.066162  0.543832  1
  C  C5  1  0.514214  0.250000  0.443898  1
  C  C6  1  0.235602  0.750000  0.556102  1
  O  O7  1  0.151318  0.866086  0.580452  1
  O  O8  1  0.598496  0.366086  0.419548  1
  O  O9  1  0.339798  0.250000  0.495597  1
  O  O10  1  0.410017  0.750000  0.504403  1
  O  O11  1  0.151318  0.633914  0.580452  1
  O  O12  1  0.598496  0.133914  0.419548  1
