# generated using pymatgen
data_BiIO
_symmetry_space_group_name_H-M   'P 1'
_cell_length_a   4.01931465
_cell_length_b   4.01931465
_cell_length_c   26.22199200
_cell_angle_alpha   90.00000000
_cell_angle_beta   90.00000000
_cell_angle_gamma   90.00000000
_symmetry_Int_Tables_number   1
_chemical_formula_structural   BiIO
_chemical_formula_sum   'Bi2 I2 O2'
_cell_volume   423.61340305
_cell_formula_units_Z   2
loop_
 _symmetry_equiv_pos_site_id
 _symmetry_equiv_pos_as_xyz
  1  'x, y, z'
loop_
 _atom_site_type_symbol
 _atom_site_label
 _atom_site_symmetry_multiplicity
 _atom_site_fract_x
 _atom_site_fract_y
 _atom_site_fract_z
 _atom_site_occupancy
  Bi  Bi1  1  -0.000000  0.500000  0.547438  1
  Bi  Bi2  1  0.500000  0.000000  0.452562  1
  I  I3  1  0.500000  -0.000000  0.618514  1
  I  I4  1  0.000000  0.500000  0.381486  1
  O  O5  1  0.500000  0.500000  0.500000  1
  O  O6  1  -0.000000  0.000000  0.500000  1
