# generated using pymatgen
data_BaMn4O8
_symmetry_space_group_name_H-M   'P 1'
_cell_length_a   5.56838238
_cell_length_b   5.56838302
_cell_length_c   24.21549689
_cell_angle_alpha   90.00000000
_cell_angle_beta   90.00000000
_cell_angle_gamma   119.99999619
_symmetry_Int_Tables_number   1
_chemical_formula_structural   BaMn4O8
_chemical_formula_sum   'Ba1 Mn4 O8'
_cell_volume   650.25273050
_cell_formula_units_Z   1
loop_
 _symmetry_equiv_pos_site_id
 _symmetry_equiv_pos_as_xyz
  1  'x, y, z'
loop_
 _atom_site_type_symbol
 _atom_site_label
 _atom_site_symmetry_multiplicity
 _atom_site_fract_x
 _atom_site_fract_y
 _atom_site_fract_z
 _atom_site_occupancy
  Ba  Ba1  1  -0.000000  0.000000  0.500000  1
  Mn  Mn2  1  0.333333  0.666667  0.577278  1
  Mn  Mn3  1  0.666667  0.333333  0.577278  1
  Mn  Mn4  1  0.333333  0.666667  0.422722  1
  Mn  Mn5  1  0.666667  0.333333  0.422722  1
  O  O6  1  1.000000  0.349115  0.590520  1
  O  O7  1  0.349115  0.000000  0.590520  1
  O  O8  1  0.650885  0.650885  0.590520  1
  O  O9  1  0.000000  0.650885  0.409480  1
  O  O10  1  0.349115  0.349115  0.409480  1
  O  O11  1  0.650885  -0.000000  0.409480  1
  O  O12  1  0.333333  0.666667  0.500000  1
  O  O13  1  0.666667  0.333333  0.500000  1
