# generated using pymatgen
data_Be2BO5
_symmetry_space_group_name_H-M   'P 1'
_cell_length_a   4.48539944
_cell_length_b   4.49142638
_cell_length_c   24.31220900
_cell_angle_alpha   90.00000000
_cell_angle_beta   90.00000000
_cell_angle_gamma   119.95561349
_symmetry_Int_Tables_number   1
_chemical_formula_structural   Be2BO5
_chemical_formula_sum   'Be2 B1 O5'
_cell_volume   424.36009153
_cell_formula_units_Z   1
loop_
 _symmetry_equiv_pos_site_id
 _symmetry_equiv_pos_as_xyz
  1  'x, y, z'
loop_
 _atom_site_type_symbol
 _atom_site_label
 _atom_site_symmetry_multiplicity
 _atom_site_fract_x
 _atom_site_fract_y
 _atom_site_fract_z
 _atom_site_occupancy
  Be  Be1  1  0.338449  0.664829  0.479833  1
  Be  Be2  1  0.673620  0.335171  0.520167  1
  B  B3  1  0.005758  0.000000  0.500000  1
  O  O4  1  0.312418  0.661380  0.413347  1
  O  O5  1  0.651038  0.338620  0.586653  1
  O  O6  1  0.005261  0.305830  0.499892  1
  O  O7  1  0.699433  0.694170  0.500108  1
  O  O8  1  0.314023  1.000000  0.500000  1
