# generated using pymatgen
data_Na2UI6
_symmetry_space_group_name_H-M   'P 1'
_cell_length_a   7.74049369
_cell_length_b   7.74049303
_cell_length_c   23.56148400
_cell_angle_alpha   90.00000000
_cell_angle_beta   90.00000000
_cell_angle_gamma   60.00000151
_symmetry_Int_Tables_number   1
_chemical_formula_structural   Na2UI6
_chemical_formula_sum   'Na2 U1 I6'
_cell_volume   1222.56107406
_cell_formula_units_Z   1
loop_
 _symmetry_equiv_pos_site_id
 _symmetry_equiv_pos_as_xyz
  1  'x, y, z'
loop_
 _atom_site_type_symbol
 _atom_site_label
 _atom_site_symmetry_multiplicity
 _atom_site_fract_x
 _atom_site_fract_y
 _atom_site_fract_z
 _atom_site_occupancy
  Na  Na1  1  -0.000000  0.000000  0.503216  1
  Na  Na2  1  0.333333  0.333333  0.496784  1
  U  U3  1  0.666667  0.666667  0.500000  1
  I  I4  1  0.986281  0.354751  0.575902  1
  I  I5  1  0.354751  0.658967  0.575902  1
  I  I6  1  0.658967  0.986281  0.575902  1
  I  I7  1  0.347052  0.978582  0.424098  1
  I  I8  1  0.978582  0.674366  0.424098  1
  I  I9  1  0.674366  0.347052  0.424098  1
