# generated using pymatgen
data_K2Sb4S7
_symmetry_space_group_name_H-M   'P 1'
_cell_length_a   6.48174385
_cell_length_b   6.48174320
_cell_length_c   27.70518500
_cell_angle_alpha   90.00000000
_cell_angle_beta   90.00000000
_cell_angle_gamma   106.19984637
_symmetry_Int_Tables_number   1
_chemical_formula_structural   K2Sb4S7
_chemical_formula_sum   'K2 Sb4 S7'
_cell_volume   1117.76150988
_cell_formula_units_Z   1
loop_
 _symmetry_equiv_pos_site_id
 _symmetry_equiv_pos_as_xyz
  1  'x, y, z'
loop_
 _atom_site_type_symbol
 _atom_site_label
 _atom_site_symmetry_multiplicity
 _atom_site_fract_x
 _atom_site_fract_y
 _atom_site_fract_z
 _atom_site_occupancy
  K  K1  1  0.446439  0.783067  0.532091  1
  K  K2  1  0.783067  0.446439  0.467909  1
  Sb  Sb3  1  0.090293  0.123465  0.581888  1
  Sb  Sb4  1  0.123465  0.090293  0.418112  1
  Sb  Sb5  1  0.432452  0.682193  0.367461  1
  Sb  Sb6  1  0.682193  0.432452  0.632539  1
  S  S7  1  0.666404  0.789016  0.631975  1
  S  S8  1  0.789016  0.666404  0.368025  1
  S  S9  1  0.471809  0.278539  0.555564  1
  S  S10  1  0.278539  0.471809  0.444436  1
  S  S11  1  0.009447  0.475468  0.577722  1
  S  S12  1  0.475468  0.009447  0.422278  1
  S  S13  1  0.959844  0.959844  0.500000  1
