# generated using pymatgen
data_Mn2FeO6
_symmetry_space_group_name_H-M   'P 1'
_cell_length_a   5.05892775
_cell_length_b   5.10227525
_cell_length_c   21.92624700
_cell_angle_alpha   90.00000000
_cell_angle_beta   90.00000000
_cell_angle_gamma   119.71935947
_symmetry_Int_Tables_number   1
_chemical_formula_structural   Mn2FeO6
_chemical_formula_sum   'Mn2 Fe1 O6'
_cell_volume   491.51696397
_cell_formula_units_Z   1
loop_
 _symmetry_equiv_pos_site_id
 _symmetry_equiv_pos_as_xyz
  1  'x, y, z'
loop_
 _atom_site_type_symbol
 _atom_site_label
 _atom_site_symmetry_multiplicity
 _atom_site_fract_x
 _atom_site_fract_y
 _atom_site_fract_z
 _atom_site_occupancy
  Mn  Mn1  1  0.830522  0.661044  0.500000  1
  Mn  Mn2  1  0.169478  0.338956  0.500000  1
  Fe  Fe3  1  0.500000  -0.000000  0.500000  1
  O  O4  1  0.842206  0.343948  0.544461  1
  O  O5  1  0.501742  0.343948  0.455539  1
  O  O6  1  0.828148  -0.000000  0.457525  1
  O  O7  1  0.171852  -0.000000  0.542475  1
  O  O8  1  0.498258  0.656052  0.544461  1
  O  O9  1  0.157794  0.656052  0.455539  1
