# generated using pymatgen
data_K2Ca(NO2)4
_symmetry_space_group_name_H-M   'P 1'
_cell_length_a   5.33119077
_cell_length_b   5.33119057
_cell_length_c   26.89491700
_cell_angle_alpha   90.00000000
_cell_angle_beta   90.00000000
_cell_angle_gamma   69.52888982
_symmetry_Int_Tables_number   1
_chemical_formula_structural   K2Ca(NO2)4
_chemical_formula_sum   'K2 Ca1 N4 O8'
_cell_volume   716.12374629
_cell_formula_units_Z   1
loop_
 _symmetry_equiv_pos_site_id
 _symmetry_equiv_pos_as_xyz
  1  'x, y, z'
loop_
 _atom_site_type_symbol
 _atom_site_label
 _atom_site_symmetry_multiplicity
 _atom_site_fract_x
 _atom_site_fract_y
 _atom_site_fract_z
 _atom_site_occupancy
  K  K1  1  0.347896  0.347896  0.372716  1
  K  K2  1  0.652104  0.652104  0.627284  1
  Ca  Ca3  1  -0.000000  -0.000000  0.500000  1
  N  N4  1  0.442129  0.442129  0.484489  1
  N  N5  1  0.713901  0.713901  0.384362  1
  N  N6  1  0.286099  0.286099  0.615638  1
  N  N7  1  0.557871  0.557871  0.515511  1
  O  O8  1  0.199720  0.573505  0.468888  1
  O  O9  1  0.573505  0.199720  0.468888  1
  O  O10  1  0.800280  0.426495  0.531112  1
  O  O11  1  0.815759  0.462258  0.377016  1
  O  O12  1  0.537742  0.184241  0.622984  1
  O  O13  1  0.462258  0.815759  0.377016  1
  O  O14  1  0.426495  0.800280  0.531112  1
  O  O15  1  0.184241  0.537742  0.622984  1
