# generated using pymatgen
data_CdSbS2Br
_symmetry_space_group_name_H-M   'P 1'
_cell_length_a   3.82412820
_cell_length_b   10.42933588
_cell_length_c   25.64402500
_cell_angle_alpha   90.00000000
_cell_angle_beta   90.00000000
_cell_angle_gamma   90.00000000
_symmetry_Int_Tables_number   1
_chemical_formula_structural   CdSbS2Br
_chemical_formula_sum   'Cd2 Sb2 S4 Br2'
_cell_volume   1022.76366086
_cell_formula_units_Z   2
loop_
 _symmetry_equiv_pos_site_id
 _symmetry_equiv_pos_as_xyz
  1  'x, y, z'
loop_
 _atom_site_type_symbol
 _atom_site_label
 _atom_site_symmetry_multiplicity
 _atom_site_fract_x
 _atom_site_fract_y
 _atom_site_fract_z
 _atom_site_occupancy
  Cd  Cd1  1  -0.000000  0.000000  0.500000  1
  Cd  Cd2  1  0.000000  0.500000  0.500000  1
  Sb  Sb3  1  0.500000  0.681275  0.398412  1
  Sb  Sb4  1  0.500000  0.318725  0.601588  1
  S  S5  1  0.000000  0.749011  0.459096  1
  S  S6  1  0.500000  0.462590  0.426375  1
  S  S7  1  0.500000  0.537410  0.573625  1
  S  S8  1  0.000000  0.250989  0.540904  1
  Br  Br9  1  0.500000  0.083403  0.432236  1
  Br  Br10  1  0.500000  0.916597  0.567764  1
