# generated using pymatgen
data_Sn(PO3)2
_symmetry_space_group_name_H-M   'P 1'
_cell_length_a   4.98777695
_cell_length_b   6.99099607
_cell_length_c   25.64286400
_cell_angle_alpha   90.00000000
_cell_angle_beta   90.00000000
_cell_angle_gamma   104.68750449
_symmetry_Int_Tables_number   1
_chemical_formula_structural   Sn(PO3)2
_chemical_formula_sum   'Sn2 P4 O12'
_cell_volume   864.93636455
_cell_formula_units_Z   2
loop_
 _symmetry_equiv_pos_site_id
 _symmetry_equiv_pos_as_xyz
  1  'x, y, z'
loop_
 _atom_site_type_symbol
 _atom_site_label
 _atom_site_symmetry_multiplicity
 _atom_site_fract_x
 _atom_site_fract_y
 _atom_site_fract_z
 _atom_site_occupancy
  Sn  Sn1  1  0.885210  0.241595  0.620372  1
  Sn  Sn2  1  0.385210  0.741595  0.379628  1
  P  P3  1  0.336505  0.309911  0.440290  1
  P  P4  1  0.412991  0.422866  0.549339  1
  P  P5  1  0.836505  0.809911  0.559710  1
  P  P6  1  0.912991  0.922866  0.450661  1
  O  O7  1  0.748217  0.001358  0.566851  1
  O  O8  1  0.047678  0.151706  0.455412  1
  O  O9  1  0.497925  0.240199  0.399865  1
  O  O10  1  0.530350  0.335069  0.595397  1
  O  O11  1  0.495382  0.329982  0.496768  1
  O  O12  1  0.101921  0.388684  0.552664  1
  O  O13  1  0.248217  0.501358  0.433149  1
  O  O14  1  0.547678  0.651706  0.544588  1
  O  O15  1  0.601921  0.888684  0.447336  1
  O  O16  1  0.997925  0.740199  0.600135  1
  O  O17  1  0.030350  0.835069  0.404603  1
  O  O18  1  0.995382  0.829982  0.503232  1
