# generated using pymatgen
data_Pt(NO3)2
_symmetry_space_group_name_H-M   'P 1'
_cell_length_a   4.69125687
_cell_length_b   4.69125767
_cell_length_c   22.56568500
_cell_angle_alpha   90.00000000
_cell_angle_beta   90.00000000
_cell_angle_gamma   59.99999925
_symmetry_Int_Tables_number   1
_chemical_formula_structural   Pt(NO3)2
_chemical_formula_sum   'Pt1 N2 O6'
_cell_volume   430.08832251
_cell_formula_units_Z   1
loop_
 _symmetry_equiv_pos_site_id
 _symmetry_equiv_pos_as_xyz
  1  'x, y, z'
loop_
 _atom_site_type_symbol
 _atom_site_label
 _atom_site_symmetry_multiplicity
 _atom_site_fract_x
 _atom_site_fract_y
 _atom_site_fract_z
 _atom_site_occupancy
  Pt  Pt1  1  -0.000000  0.000000  0.500000  1
  N  N2  1  0.666667  0.666667  0.557923  1
  N  N3  1  0.333333  0.333333  0.442077  1
  O  O4  1  0.386432  0.935475  0.558719  1
  O  O5  1  0.935475  0.678092  0.558719  1
  O  O6  1  0.678092  0.386432  0.558719  1
  O  O7  1  0.613568  0.064525  0.441281  1
  O  O8  1  0.064525  0.321908  0.441281  1
  O  O9  1  0.321908  0.613568  0.441281  1
