# generated using pymatgen
data_Nb2Zn2WO8
_symmetry_space_group_name_H-M   'P 1'
_cell_length_a   5.39785225
_cell_length_b   5.97238134
_cell_length_c   28.76769400
_cell_angle_alpha   90.00000000
_cell_angle_beta   90.00000000
_cell_angle_gamma   88.05013290
_symmetry_Int_Tables_number   1
_chemical_formula_structural   Nb2Zn2WO8
_chemical_formula_sum   'Nb4 Zn4 W2 O16'
_cell_volume   926.87685100
_cell_formula_units_Z   2
loop_
 _symmetry_equiv_pos_site_id
 _symmetry_equiv_pos_as_xyz
  1  'x, y, z'
loop_
 _atom_site_type_symbol
 _atom_site_label
 _atom_site_symmetry_multiplicity
 _atom_site_fract_x
 _atom_site_fract_y
 _atom_site_fract_z
 _atom_site_occupancy
  Nb  Nb1  1  0.699659  0.863436  0.416052  1
  Nb  Nb2  1  0.736506  0.884779  0.580534  1
  Nb  Nb3  1  0.296640  0.136033  0.583903  1
  Nb  Nb4  1  0.259650  0.114833  0.419428  1
  Zn  Zn5  1  0.806320  0.377321  0.636785  1
  Zn  Zn6  1  0.711898  0.344637  0.368852  1
  Zn  Zn7  1  0.189789  0.622214  0.363207  1
  Zn  Zn8  1  0.284362  0.654938  0.631109  1
  W  W9  1  0.756226  0.359169  0.501782  1
  W  W10  1  0.239926  0.640316  0.498131  1
  O  O11  1  0.079133  0.868485  0.454258  1
  O  O12  1  0.412205  0.860972  0.541187  1
  O  O13  1  0.917138  0.130989  0.545773  1
  O  O14  1  0.583995  0.138611  0.458842  1
  O  O15  1  0.590669  0.617783  0.460263  1
  O  O16  1  0.904215  0.625185  0.536889  1
  O  O17  1  0.405297  0.381709  0.539791  1
  O  O18  1  0.092225  0.374236  0.463170  1
  O  O19  1  0.397929  0.861529  0.374627  1
  O  O20  1  0.087266  0.916278  0.617542  1
  O  O21  1  0.355812  0.333293  0.371227  1
  O  O22  1  0.151252  0.370830  0.632711  1
  O  O23  1  0.640393  0.666202  0.628797  1
  O  O24  1  0.844896  0.628789  0.367279  1
  O  O25  1  0.908847  0.083228  0.382475  1
  O  O26  1  0.598310  0.138039  0.625385  1
