# generated using pymatgen
data_Li2GeN2
_symmetry_space_group_name_H-M   'P 1'
_cell_length_a   5.77535345
_cell_length_b   6.54662802
_cell_length_c   24.99610000
_cell_angle_alpha   90.00000000
_cell_angle_beta   90.00000000
_cell_angle_gamma   90.00000000
_symmetry_Int_Tables_number   1
_chemical_formula_structural   Li2GeN2
_chemical_formula_sum   'Li8 Ge4 N8'
_cell_volume   945.07981258
_cell_formula_units_Z   4
loop_
 _symmetry_equiv_pos_site_id
 _symmetry_equiv_pos_as_xyz
  1  'x, y, z'
loop_
 _atom_site_type_symbol
 _atom_site_label
 _atom_site_symmetry_multiplicity
 _atom_site_fract_x
 _atom_site_fract_y
 _atom_site_fract_z
 _atom_site_occupancy
  Li  Li1  1  0.306179  0.587969  0.465565  1
  Li  Li2  1  0.029043  0.087969  0.534435  1
  Li  Li3  1  0.529043  0.412031  0.534435  1
  Li  Li4  1  0.806179  0.912031  0.465565  1
  Li  Li5  1  0.143794  0.855969  0.417478  1
  Li  Li6  1  0.191429  0.355969  0.582522  1
  Li  Li7  1  0.691429  0.144031  0.582522  1
  Li  Li8  1  0.643794  0.644031  0.417478  1
  Ge  Ge9  1  0.972799  0.645527  0.535308  1
  Ge  Ge10  1  0.362423  0.145527  0.464692  1
  Ge  Ge11  1  0.862423  0.354473  0.464692  1
  Ge  Ge12  1  0.472799  0.854473  0.535308  1
  N  N13  1  0.044305  0.131360  0.446883  1
  N  N14  1  0.290918  0.631360  0.553117  1
  N  N15  1  0.790918  0.868640  0.553117  1
  N  N16  1  0.544305  0.368640  0.446883  1
  N  N17  1  0.963643  0.626776  0.454997  1
  N  N18  1  0.371580  0.126776  0.545003  1
  N  N19  1  0.871580  0.373224  0.545003  1
  N  N20  1  0.463643  0.873224  0.454997  1
