# generated using pymatgen
data_Cu(BiO2)2
_symmetry_space_group_name_H-M   'P 1'
_cell_length_a   8.11062658
_cell_length_b   8.11062658
_cell_length_c   21.20902079
_cell_angle_alpha   90.00000000
_cell_angle_beta   90.00000000
_cell_angle_gamma   90.00000000
_symmetry_Int_Tables_number   1
_chemical_formula_structural   Cu(BiO2)2
_chemical_formula_sum   'Cu2 Bi4 O8'
_cell_volume   1395.17739461
_cell_formula_units_Z   2
loop_
 _symmetry_equiv_pos_site_id
 _symmetry_equiv_pos_as_xyz
  1  'x, y, z'
loop_
 _atom_site_type_symbol
 _atom_site_label
 _atom_site_symmetry_multiplicity
 _atom_site_fract_x
 _atom_site_fract_y
 _atom_site_fract_z
 _atom_site_occupancy
  Cu  Cu1  1  -0.000000  0.500000  0.550344  1
  Cu  Cu2  1  0.500000  -0.000000  0.449656  1
  Bi  Bi3  1  0.333856  0.333856  0.500000  1
  Bi  Bi4  1  0.833856  0.166144  0.500000  1
  Bi  Bi5  1  0.166144  0.833856  0.500000  1
  Bi  Bi6  1  0.666144  0.666144  0.500000  1
  O  O7  1  0.097646  0.288016  0.541120  1
  O  O8  1  0.788016  0.402354  0.541120  1
  O  O9  1  0.211984  0.597646  0.541120  1
  O  O10  1  0.902354  0.711984  0.541120  1
  O  O11  1  0.402354  0.788016  0.458880  1
  O  O12  1  0.597646  0.211984  0.458880  1
  O  O13  1  0.288016  0.097646  0.458880  1
  O  O14  1  0.711984  0.902354  0.458880  1
