# generated using pymatgen
data_Sc6C2I11
_symmetry_space_group_name_H-M   'P 1'
_cell_length_a   9.00915696
_cell_length_b   16.13055827
_cell_length_c   27.74423300
_cell_angle_alpha   90.00000000
_cell_angle_beta   90.00000000
_cell_angle_gamma   82.78122853
_symmetry_Int_Tables_number   1
_chemical_formula_structural   Sc6C2I11
_chemical_formula_sum   'Sc12 C4 I22'
_cell_volume   3999.90946387
_cell_formula_units_Z   2
loop_
 _symmetry_equiv_pos_site_id
 _symmetry_equiv_pos_as_xyz
  1  'x, y, z'
loop_
 _atom_site_type_symbol
 _atom_site_label
 _atom_site_symmetry_multiplicity
 _atom_site_fract_x
 _atom_site_fract_y
 _atom_site_fract_z
 _atom_site_occupancy
  Sc  Sc1  1  0.752293  0.531485  0.543323  1
  Sc  Sc2  1  0.416277  0.684698  0.456677  1
  Sc  Sc3  1  0.928614  0.337584  0.495807  1
  Sc  Sc4  1  0.239955  0.878598  0.504193  1
  Sc  Sc5  1  0.691476  0.334918  0.580563  1
  Sc  Sc6  1  0.477094  0.881264  0.419437  1
  Sc  Sc7  1  0.431537  0.420868  0.515345  1
  Sc  Sc8  1  0.737032  0.795315  0.484655  1
  Sc  Sc9  1  0.667606  0.427631  0.431281  1
  Sc  Sc10  1  0.500964  0.788552  0.568719  1
  Sc  Sc11  1  0.618960  0.229175  0.469978  1
  Sc  Sc12  1  0.549609  0.987007  0.530022  1
  C  C13  1  0.472079  0.794935  0.485364  1
  C  C14  1  0.696490  0.421248  0.514636  1
  C  C15  1  0.505592  0.872613  0.502655  1
  C  C16  1  0.662978  0.343570  0.497345  1
  I  I17  1  0.760315  0.477459  0.640312  1
  I  I18  1  0.408254  0.738724  0.359688  1
  I  I19  1  0.067439  0.489607  0.529110  1
  I  I20  1  0.101130  0.726575  0.470890  1
  I  I21  1  0.431652  0.602561  0.555482  1
  I  I22  1  0.736918  0.613621  0.444518  1
  I  I23  1  0.546116  0.059495  0.431393  1
  I  I24  1  0.622453  0.156687  0.568607  1
  I  I25  1  0.926473  0.170743  0.456018  1
  I  I26  1  0.242096  0.045440  0.543982  1
  I  I27  1  0.292268  0.280041  0.480785  1
  I  I28  1  0.876302  0.936141  0.519215  1
  I  I29  1  0.776586  0.842585  0.387048  1
  I  I30  1  0.391984  0.373597  0.612952  1
  I  I31  1  0.175631  0.949980  0.410156  1
  I  I32  1  0.992939  0.266203  0.589844  1
  I  I33  1  0.805269  0.708622  0.577618  1
  I  I34  1  0.363300  0.507561  0.422382  1
  I  I35  1  0.204821  0.813952  0.601243  1
  I  I36  1  0.963748  0.402230  0.398757  1
  I  I37  1  0.578824  0.922114  0.627914  1
  I  I38  1  0.589746  0.294069  0.372086  1
