# generated using pymatgen
data_Sr4As2O
_symmetry_space_group_name_H-M   'P 1'
_cell_length_a   4.89487152
_cell_length_b   4.89487152
_cell_length_c   31.98061600
_cell_angle_alpha   90.00000000
_cell_angle_beta   90.00000000
_cell_angle_gamma   90.00000000
_symmetry_Int_Tables_number   1
_chemical_formula_structural   Sr4As2O
_chemical_formula_sum   'Sr4 As2 O1'
_cell_volume   766.24811419
_cell_formula_units_Z   1
loop_
 _symmetry_equiv_pos_site_id
 _symmetry_equiv_pos_as_xyz
  1  'x, y, z'
loop_
 _atom_site_type_symbol
 _atom_site_label
 _atom_site_symmetry_multiplicity
 _atom_site_fract_x
 _atom_site_fract_y
 _atom_site_fract_z
 _atom_site_occupancy
  Sr  Sr1  1  -0.000000  0.000000  0.398213  1
  Sr  Sr2  1  -0.000000  0.000000  0.601787  1
  Sr  Sr3  1  0.500000  0.000000  0.500000  1
  Sr  Sr4  1  -0.000000  0.500000  0.500000  1
  As  As5  1  0.000000  -0.000000  0.304406  1
  As  As6  1  0.000000  0.000000  0.695594  1
  O  O7  1  -0.000000  0.000000  0.500000  1
