# generated using pymatgen
data_Mn2NiO6
_symmetry_space_group_name_H-M   'P 1'
_cell_length_a   4.98186201
_cell_length_b   4.98359276
_cell_length_c   21.91344500
_cell_angle_alpha   90.00000000
_cell_angle_beta   90.00000000
_cell_angle_gamma   119.98851902
_symmetry_Int_Tables_number   1
_chemical_formula_structural   Mn2NiO6
_chemical_formula_sum   'Mn2 Ni1 O6'
_cell_volume   471.22222067
_cell_formula_units_Z   1
loop_
 _symmetry_equiv_pos_site_id
 _symmetry_equiv_pos_as_xyz
  1  'x, y, z'
loop_
 _atom_site_type_symbol
 _atom_site_label
 _atom_site_symmetry_multiplicity
 _atom_site_fract_x
 _atom_site_fract_y
 _atom_site_fract_z
 _atom_site_occupancy
  Mn  Mn1  1  0.833284  0.666567  0.500000  1
  Mn  Mn2  1  0.166717  0.333433  0.500000  1
  Ni  Ni3  1  0.500000  0.000000  0.500000  1
  O  O4  1  0.172781  0.672666  0.456255  1
  O  O5  1  0.499886  0.672666  0.543745  1
  O  O6  1  0.172299  -0.000000  0.543833  1
  O  O7  1  0.500114  0.327334  0.456255  1
  O  O8  1  0.827701  0.000000  0.456167  1
  O  O9  1  0.827219  0.327334  0.543745  1
