# generated using pymatgen
data_Sr2FeBrO3
_symmetry_space_group_name_H-M   'P 1'
_cell_length_a   3.96158062
_cell_length_b   3.96158062
_cell_length_c   32.72604100
_cell_angle_alpha   90.00000000
_cell_angle_beta   90.00000000
_cell_angle_gamma   90.00000000
_symmetry_Int_Tables_number   1
_chemical_formula_structural   Sr2FeBrO3
_chemical_formula_sum   'Sr4 Fe2 Br2 O6'
_cell_volume   513.60644759
_cell_formula_units_Z   2
loop_
 _symmetry_equiv_pos_site_id
 _symmetry_equiv_pos_as_xyz
  1  'x, y, z'
loop_
 _atom_site_type_symbol
 _atom_site_label
 _atom_site_symmetry_multiplicity
 _atom_site_fract_x
 _atom_site_fract_y
 _atom_site_fract_z
 _atom_site_occupancy
  Sr  Sr1  1  0.500000  0.000000  0.651189  1
  Sr  Sr2  1  -0.000000  0.500000  0.457629  1
  Sr  Sr3  1  0.500000  0.000000  0.542371  1
  Sr  Sr4  1  0.000000  0.500000  0.348811  1
  Fe  Fe5  1  -0.000000  0.500000  0.591470  1
  Fe  Fe6  1  0.500000  0.000000  0.408530  1
  Br  Br7  1  0.500000  -0.000000  0.305524  1
  Br  Br8  1  -0.000000  0.500000  0.694476  1
  O  O9  1  -0.000000  0.000000  0.601554  1
  O  O10  1  0.500000  0.500000  0.601554  1
  O  O11  1  0.000000  0.000000  0.398446  1
  O  O12  1  0.500000  0.500000  0.398446  1
  O  O13  1  0.500000  0.000000  0.467056  1
  O  O14  1  -0.000000  0.500000  0.532944  1
