# generated using pymatgen
data_Sn4Pd
_symmetry_space_group_name_H-M   'P 1'
_cell_length_a   6.60843848
_cell_length_b   6.64390196
_cell_length_c   22.54156181
_cell_angle_alpha   90.00000000
_cell_angle_beta   90.00000000
_cell_angle_gamma   90.00000000
_symmetry_Int_Tables_number   1
_chemical_formula_structural   Sn4Pd
_chemical_formula_sum   'Sn8 Pd2'
_cell_volume   989.70569606
_cell_formula_units_Z   2
loop_
 _symmetry_equiv_pos_site_id
 _symmetry_equiv_pos_as_xyz
  1  'x, y, z'
loop_
 _atom_site_type_symbol
 _atom_site_label
 _atom_site_symmetry_multiplicity
 _atom_site_fract_x
 _atom_site_fract_y
 _atom_site_fract_z
 _atom_site_occupancy
  Sn  Sn1  1  0.836878  0.836495  0.560838  1
  Sn  Sn2  1  0.163122  0.163505  0.560838  1
  Sn  Sn3  1  0.163167  0.836489  0.439159  1
  Sn  Sn4  1  0.836833  0.163511  0.439159  1
  Sn  Sn5  1  0.336833  0.336489  0.439159  1
  Sn  Sn6  1  0.663167  0.663511  0.439159  1
  Sn  Sn7  1  0.663122  0.336495  0.560838  1
  Sn  Sn8  1  0.336878  0.663505  0.560838  1
  Pd  Pd9  1  0.500000  0.000000  0.500005  1
  Pd  Pd10  1  0.000000  0.500000  0.500005  1
