# generated using pymatgen
data_Ta2PdSe6
_symmetry_space_group_name_H-M   'P 1'
_cell_length_a   3.40283644
_cell_length_b   9.73786595
_cell_length_c   23.91014500
_cell_angle_alpha   90.00000000
_cell_angle_beta   90.00000000
_cell_angle_gamma   100.06247350
_symmetry_Int_Tables_number   1
_chemical_formula_structural   Ta2PdSe6
_chemical_formula_sum   'Ta2 Pd1 Se6'
_cell_volume   780.10807098
_cell_formula_units_Z   1
loop_
 _symmetry_equiv_pos_site_id
 _symmetry_equiv_pos_as_xyz
  1  'x, y, z'
loop_
 _atom_site_type_symbol
 _atom_site_label
 _atom_site_symmetry_multiplicity
 _atom_site_fract_x
 _atom_site_fract_y
 _atom_site_fract_z
 _atom_site_occupancy
  Ta  Ta1  1  0.351529  0.703058  0.518863  1
  Ta  Ta2  1  0.648471  0.296942  0.481137  1
  Pd  Pd3  1  0.000000  0.000000  0.500000  1
  Se  Se4  1  0.919983  0.839967  0.581886  1
  Se  Se5  1  0.080017  0.160033  0.418114  1
  Se  Se6  1  0.242776  0.485551  0.442623  1
  Se  Se7  1  0.892644  0.785289  0.441658  1
  Se  Se8  1  0.107356  0.214711  0.558342  1
  Se  Se9  1  0.757224  0.514449  0.557377  1
