# generated using pymatgen
data_Y(CuO2)3
_symmetry_space_group_name_H-M   'P 1'
_cell_length_a   3.63076668
_cell_length_b   8.85846692
_cell_length_c   24.58076902
_cell_angle_alpha   86.34455370
_cell_angle_beta   89.40812749
_cell_angle_gamma   90.20593132
_symmetry_Int_Tables_number   1
_chemical_formula_structural   Y(CuO2)3
_chemical_formula_sum   'Y2 Cu6 O12'
_cell_volume   788.93420462
_cell_formula_units_Z   2
loop_
 _symmetry_equiv_pos_site_id
 _symmetry_equiv_pos_as_xyz
  1  'x, y, z'
loop_
 _atom_site_type_symbol
 _atom_site_label
 _atom_site_symmetry_multiplicity
 _atom_site_fract_x
 _atom_site_fract_y
 _atom_site_fract_z
 _atom_site_occupancy
  Y  Y1  1  0.998499  0.959169  0.606999  1
  Y  Y2  1  0.504868  0.474981  0.412679  1
  Cu  Cu3  1  0.992019  0.393803  0.609868  1
  Cu  Cu4  1  0.004145  0.113644  0.397082  1
  Cu  Cu5  1  0.517950  0.221059  0.517223  1
  Cu  Cu6  1  0.495164  0.652243  0.604676  1
  Cu  Cu7  1  0.504241  0.868970  0.371002  1
  Cu  Cu8  1  0.002343  0.783296  0.463992  1
  O  O9  1  0.495780  0.451359  0.570786  1
  O  O10  1  0.501973  0.674647  0.353403  1
  O  O11  1  0.005322  0.598362  0.439811  1
  O  O12  1  0.995031  0.197884  0.626691  1
  O  O13  1  0.002727  0.897112  0.391524  1
  O  O14  1  0.502520  0.044410  0.551921  1
  O  O15  1  0.494985  0.830209  0.638629  1
  O  O16  1  0.504802  0.080123  0.383910  1
  O  O17  1  0.999806  0.858794  0.526895  1
  O  O18  1  0.994083  0.604313  0.613520  1
  O  O19  1  0.004211  0.316275  0.406590  1
  O  O20  1  0.515050  0.428565  0.512800  1
