# generated using pymatgen
data_Ba2Tl2Co3O10
_symmetry_space_group_name_H-M   'P 1'
_cell_length_a   3.70162544
_cell_length_b   3.70287067
_cell_length_c   61.36632500
_cell_angle_alpha   90.00000000
_cell_angle_beta   90.00000000
_cell_angle_gamma   90.02767565
_symmetry_Int_Tables_number   1
_chemical_formula_structural   Ba2Tl2Co3O10
_chemical_formula_sum   'Ba2 Tl2 Co3 O10'
_cell_volume   841.12604401
_cell_formula_units_Z   1
loop_
 _symmetry_equiv_pos_site_id
 _symmetry_equiv_pos_as_xyz
  1  'x, y, z'
loop_
 _atom_site_type_symbol
 _atom_site_label
 _atom_site_symmetry_multiplicity
 _atom_site_fract_x
 _atom_site_fract_y
 _atom_site_fract_z
 _atom_site_occupancy
  Ba  Ba1  1  0.978559  0.928410  0.411036  1
  Ba  Ba2  1  0.922804  0.080291  0.588979  1
  Tl  Tl3  1  0.490246  0.425311  0.359505  1
  Tl  Tl4  1  0.431051  0.581679  0.640432  1
  Co  Co5  1  0.423772  0.578726  0.552521  1
  Co  Co6  1  0.476525  0.428202  0.447439  1
  Co  Co7  1  0.404839  0.472876  0.500033  1
  O  O8  1  0.423630  0.083264  0.558925  1
  O  O9  1  0.417895  0.579897  0.606935  1
  O  O10  1  0.923762  0.584853  0.555163  1
  O  O11  1  0.539967  0.418797  0.328934  1
  O  O12  1  0.903835  0.472740  0.497922  1
  O  O13  1  0.980863  0.428497  0.441039  1
  O  O14  1  0.474294  0.428467  0.393064  1
  O  O15  1  0.482897  0.928303  0.444848  1
  O  O16  1  0.473598  0.586542  0.671064  1
  O  O17  1  0.404959  0.972095  0.502161  1
