# generated using pymatgen
data_Mn(SbS2)2
_symmetry_space_group_name_H-M   'P 1'
_cell_length_a   3.81128489
_cell_length_b   6.53609094
_cell_length_c   24.73229000
_cell_angle_alpha   90.00000000
_cell_angle_beta   90.00000000
_cell_angle_gamma   106.95118863
_symmetry_Int_Tables_number   1
_chemical_formula_structural   Mn(SbS2)2
_chemical_formula_sum   'Mn1 Sb2 S4'
_cell_volume   589.33615858
_cell_formula_units_Z   1
loop_
 _symmetry_equiv_pos_site_id
 _symmetry_equiv_pos_as_xyz
  1  'x, y, z'
loop_
 _atom_site_type_symbol
 _atom_site_label
 _atom_site_symmetry_multiplicity
 _atom_site_fract_x
 _atom_site_fract_y
 _atom_site_fract_z
 _atom_site_occupancy
  Mn  Mn1  1  0.483216  0.966432  0.500000  1
  Sb  Sb2  1  0.187479  0.374959  0.426110  1
  Sb  Sb3  1  0.778952  0.557904  0.573890  1
  S  S4  1  0.119162  0.238324  0.520630  1
  S  S5  1  0.847270  0.694539  0.479370  1
  S  S6  1  0.412638  0.825278  0.595551  1
  S  S7  1  0.553793  0.107585  0.404449  1
