# generated using pymatgen
data_Na2FeO2
_symmetry_space_group_name_H-M   'P 1'
_cell_length_a   5.91011600
_cell_length_b   6.88861636
_cell_length_c   25.16394800
_cell_angle_alpha   90.00000000
_cell_angle_beta   90.00000000
_cell_angle_gamma   90.00000000
_symmetry_Int_Tables_number   1
_chemical_formula_structural   Na2FeO2
_chemical_formula_sum   'Na8 Fe4 O8'
_cell_volume   1024.48778070
_cell_formula_units_Z   4
loop_
 _symmetry_equiv_pos_site_id
 _symmetry_equiv_pos_as_xyz
  1  'x, y, z'
loop_
 _atom_site_type_symbol
 _atom_site_label
 _atom_site_symmetry_multiplicity
 _atom_site_fract_x
 _atom_site_fract_y
 _atom_site_fract_z
 _atom_site_occupancy
  Na  Na1  1  0.750000  0.912209  0.500000  1
  Na  Na2  1  0.750000  0.359631  0.500000  1
  Na  Na3  1  0.250000  0.640369  0.500000  1
  Na  Na4  1  0.250000  0.087791  0.500000  1
  Na  Na5  1  0.407791  0.871716  0.401206  1
  Na  Na6  1  0.907791  0.128284  0.401206  1
  Na  Na7  1  0.092209  0.871716  0.598794  1
  Na  Na8  1  0.592209  0.128284  0.598794  1
  Fe  Fe9  1  0.915520  0.629733  0.417631  1
  Fe  Fe10  1  0.415520  0.370267  0.417631  1
  Fe  Fe11  1  0.584480  0.629733  0.582369  1
  Fe  Fe12  1  0.084480  0.370267  0.582369  1
  O  O13  1  0.561481  0.138866  0.439310  1
  O  O14  1  0.061481  0.861134  0.439310  1
  O  O15  1  0.593421  0.603612  0.427342  1
  O  O16  1  0.093421  0.396388  0.427342  1
  O  O17  1  0.906579  0.603612  0.572658  1
  O  O18  1  0.406579  0.396388  0.572658  1
  O  O19  1  0.438519  0.861134  0.560690  1
  O  O20  1  0.938519  0.138866  0.560690  1
