# generated using pymatgen
data_Sn3(P2O7)2
_symmetry_space_group_name_H-M   'P 1'
_cell_length_a   5.58225399
_cell_length_b   7.04357104
_cell_length_c   26.71153105
_cell_angle_alpha   89.49572985
_cell_angle_beta   90.19808466
_cell_angle_gamma   67.40978171
_symmetry_Int_Tables_number   1
_chemical_formula_structural   Sn3(P2O7)2
_chemical_formula_sum   'Sn3 P4 O14'
_cell_volume   969.62543388
_cell_formula_units_Z   1
loop_
 _symmetry_equiv_pos_site_id
 _symmetry_equiv_pos_as_xyz
  1  'x, y, z'
loop_
 _atom_site_type_symbol
 _atom_site_label
 _atom_site_symmetry_multiplicity
 _atom_site_fract_x
 _atom_site_fract_y
 _atom_site_fract_z
 _atom_site_occupancy
  Sn  Sn1  1  0.213093  0.084793  0.392509  1
  Sn  Sn2  1  0.786907  0.915207  0.607491  1
  Sn  Sn3  1  -0.000000  0.500000  0.500000  1
  P  P4  1  0.340505  0.808490  0.514189  1
  P  P5  1  0.173978  0.162634  0.596262  1
  P  P6  1  0.826022  0.837366  0.403738  1
  P  P7  1  0.659495  0.191510  0.485811  1
  O  O8  1  0.049426  0.370969  0.569030  1
  O  O9  1  0.839358  0.301955  0.469443  1
  O  O10  1  0.371389  0.320224  0.474342  1
  O  O11  1  0.273827  0.995016  0.552082  1
  O  O12  1  0.950574  0.629031  0.430970  1
  O  O13  1  0.020835  0.886734  0.372203  1
  O  O14  1  0.628611  0.679776  0.525658  1
  O  O15  1  0.979165  0.113266  0.627797  1
  O  O16  1  0.412964  0.145923  0.626254  1
  O  O17  1  0.287150  0.892432  0.461688  1
  O  O18  1  0.712850  0.107568  0.538312  1
  O  O19  1  0.587036  0.854077  0.373746  1
  O  O20  1  0.726173  0.004984  0.447918  1
  O  O21  1  0.160642  0.698045  0.530557  1
