# generated using pymatgen
data_ZrSe3
_symmetry_space_group_name_H-M   'P 1'
_cell_length_a   3.78041573
_cell_length_b   5.48170843
_cell_length_c   26.26488000
_cell_angle_alpha   90.00000000
_cell_angle_beta   90.00000000
_cell_angle_gamma   90.00000000
_symmetry_Int_Tables_number   1
_chemical_formula_structural   ZrSe3
_chemical_formula_sum   'Zr2 Se6'
_cell_volume   544.29070065
_cell_formula_units_Z   2
loop_
 _symmetry_equiv_pos_site_id
 _symmetry_equiv_pos_as_xyz
  1  'x, y, z'
loop_
 _atom_site_type_symbol
 _atom_site_label
 _atom_site_symmetry_multiplicity
 _atom_site_fract_x
 _atom_site_fract_y
 _atom_site_fract_z
 _atom_site_occupancy
  Zr  Zr1  1  0.250000  0.720879  0.443338  1
  Zr  Zr2  1  0.750000  0.220589  0.556662  1
  Se  Se3  1  0.750000  0.504067  0.380739  1
  Se  Se4  1  0.250000  0.437400  0.619261  1
  Se  Se5  1  0.750000  0.938681  0.380963  1
  Se  Se6  1  0.250000  0.002786  0.619037  1
  Se  Se7  1  0.750000  0.720614  0.519631  1
  Se  Se8  1  0.250000  0.220853  0.480369  1
