# generated using pymatgen
data_AlO2
_symmetry_space_group_name_H-M   'P 1'
_cell_length_a   2.96430223
_cell_length_b   3.61059383
_cell_length_c   24.08297500
_cell_angle_alpha   90.00000000
_cell_angle_beta   90.00000000
_cell_angle_gamma   90.00000000
_symmetry_Int_Tables_number   1
_chemical_formula_structural   AlO2
_chemical_formula_sum   'Al2 O4'
_cell_volume   257.75746461
_cell_formula_units_Z   2
loop_
 _symmetry_equiv_pos_site_id
 _symmetry_equiv_pos_as_xyz
  1  'x, y, z'
loop_
 _atom_site_type_symbol
 _atom_site_label
 _atom_site_symmetry_multiplicity
 _atom_site_fract_x
 _atom_site_fract_y
 _atom_site_fract_z
 _atom_site_occupancy
  Al  Al1  1  0.000000  0.500000  0.539221  1
  Al  Al2  1  0.500000  0.000000  0.460779  1
  O  O3  1  0.500000  0.500000  0.477422  1
  O  O4  1  0.000000  -0.000000  0.522578  1
  O  O5  1  0.500000  0.500000  0.584675  1
  O  O6  1  0.000000  0.000000  0.415325  1
