# generated using pymatgen
data_LiSbO2
_symmetry_space_group_name_H-M   'P 1'
_cell_length_a   5.29571306
_cell_length_b   5.38520305
_cell_length_c   21.85444000
_cell_angle_alpha   90.00000000
_cell_angle_beta   90.00000000
_cell_angle_gamma   99.04815582
_symmetry_Int_Tables_number   1
_chemical_formula_structural   LiSbO2
_chemical_formula_sum   'Li2 Sb2 O4'
_cell_volume   615.50015828
_cell_formula_units_Z   2
loop_
 _symmetry_equiv_pos_site_id
 _symmetry_equiv_pos_as_xyz
  1  'x, y, z'
loop_
 _atom_site_type_symbol
 _atom_site_label
 _atom_site_symmetry_multiplicity
 _atom_site_fract_x
 _atom_site_fract_y
 _atom_site_fract_z
 _atom_site_occupancy
  Li  Li1  1  0.250000  0.000000  0.519268  1
  Li  Li2  1  0.750000  -0.000000  0.480732  1
  Sb  Sb3  1  0.750000  0.500000  0.543362  1
  Sb  Sb4  1  0.250000  0.500000  0.456638  1
  O  O5  1  0.529038  0.268168  0.485444  1
  O  O6  1  0.029038  0.268168  0.514556  1
  O  O7  1  0.970962  0.731832  0.485444  1
  O  O8  1  0.470962  0.731832  0.514556  1
