# generated using pymatgen
data_Cr(OF)2
_symmetry_space_group_name_H-M   'P 1'
_cell_length_a   4.96593621
_cell_length_b   8.90444938
_cell_length_c   24.66094300
_cell_angle_alpha   90.00000000
_cell_angle_beta   90.00000000
_cell_angle_gamma   90.00000000
_symmetry_Int_Tables_number   1
_chemical_formula_structural   Cr(OF)2
_chemical_formula_sum   'Cr4 O8 F8'
_cell_volume   1090.48045322
_cell_formula_units_Z   4
loop_
 _symmetry_equiv_pos_site_id
 _symmetry_equiv_pos_as_xyz
  1  'x, y, z'
loop_
 _atom_site_type_symbol
 _atom_site_label
 _atom_site_symmetry_multiplicity
 _atom_site_fract_x
 _atom_site_fract_y
 _atom_site_fract_z
 _atom_site_occupancy
  Cr  Cr1  1  0.061050  0.586501  0.453260  1
  Cr  Cr2  1  0.561050  0.829446  0.546740  1
  Cr  Cr3  1  0.438950  0.086501  0.453260  1
  Cr  Cr4  1  0.938950  0.329446  0.546740  1
  O  O5  1  0.108361  0.257756  0.594764  1
  O  O6  1  0.608361  0.158192  0.405236  1
  O  O7  1  0.391639  0.757756  0.594764  1
  O  O8  1  0.891639  0.658192  0.405236  1
  O  O9  1  0.825200  0.895852  0.573773  1
  O  O10  1  0.174800  0.020096  0.426227  1
  O  O11  1  0.674800  0.395852  0.573773  1
  O  O12  1  0.325200  0.520096  0.426227  1
  F  F13  1  0.859055  0.416136  0.464326  1
  F  F14  1  0.819662  0.165566  0.512216  1
  F  F15  1  0.180338  0.750382  0.487784  1
  F  F16  1  0.640945  0.916136  0.464326  1
  F  F17  1  0.359055  0.999811  0.535674  1
  F  F18  1  0.140945  0.499811  0.535674  1
  F  F19  1  0.680338  0.665566  0.512216  1
  F  F20  1  0.319662  0.250382  0.487784  1
