# generated using pymatgen
data_Pr2BC
_symmetry_space_group_name_H-M   'P 1'
_cell_length_a   3.64689817
_cell_length_b   7.41129843
_cell_length_c   23.47676900
_cell_angle_alpha   90.00000000
_cell_angle_beta   90.00000000
_cell_angle_gamma   104.24308917
_symmetry_Int_Tables_number   1
_chemical_formula_structural   Pr2BC
_chemical_formula_sum   'Pr4 B2 C2'
_cell_volume   615.03073734
_cell_formula_units_Z   2
loop_
 _symmetry_equiv_pos_site_id
 _symmetry_equiv_pos_as_xyz
  1  'x, y, z'
loop_
 _atom_site_type_symbol
 _atom_site_label
 _atom_site_symmetry_multiplicity
 _atom_site_fract_x
 _atom_site_fract_y
 _atom_site_fract_z
 _atom_site_occupancy
  Pr  Pr1  1  0.265882  0.531764  0.558128  1
  Pr  Pr2  1  0.654758  0.309515  0.441872  1
  Pr  Pr3  1  0.396082  0.792163  0.426801  1
  Pr  Pr4  1  0.524558  0.049116  0.573199  1
  B  B5  1  0.906247  0.812494  0.512937  1
  B  B6  1  0.014392  0.028785  0.487063  1
  C  C7  1  0.109984  0.219968  0.513773  1
  C  C8  1  0.810656  0.621311  0.486227  1
