# generated using pymatgen
data_GaS
_symmetry_space_group_name_H-M   'P 1'
_cell_length_a   3.61661489
_cell_length_b   3.61661577
_cell_length_c   24.64035000
_cell_angle_alpha   90.00000000
_cell_angle_beta   90.00000000
_cell_angle_gamma   120.00000101
_symmetry_Int_Tables_number   1
_chemical_formula_structural   GaS
_chemical_formula_sum   'Ga2 S2'
_cell_volume   279.11433200
_cell_formula_units_Z   2
loop_
 _symmetry_equiv_pos_site_id
 _symmetry_equiv_pos_as_xyz
  1  'x, y, z'
loop_
 _atom_site_type_symbol
 _atom_site_label
 _atom_site_symmetry_multiplicity
 _atom_site_fract_x
 _atom_site_fract_y
 _atom_site_fract_z
 _atom_site_occupancy
  Ga  Ga1  1  -0.000000  0.000000  0.450142  1
  Ga  Ga2  1  -0.000000  0.000000  0.549858  1
  S  S3  1  0.333333  0.666667  0.405908  1
  S  S4  1  0.333333  0.666667  0.594092  1
