# generated using pymatgen
data_Ba2Ni3O8
_symmetry_space_group_name_H-M   'P 1'
_cell_length_a   3.90511977
_cell_length_b   3.90687477
_cell_length_c   28.32009800
_cell_angle_alpha   90.00000000
_cell_angle_beta   90.00000000
_cell_angle_gamma   89.97739576
_symmetry_Int_Tables_number   1
_chemical_formula_structural   Ba2Ni3O8
_chemical_formula_sum   'Ba2 Ni3 O8'
_cell_volume   432.07443152
_cell_formula_units_Z   1
loop_
 _symmetry_equiv_pos_site_id
 _symmetry_equiv_pos_as_xyz
  1  'x, y, z'
loop_
 _atom_site_type_symbol
 _atom_site_label
 _atom_site_symmetry_multiplicity
 _atom_site_fract_x
 _atom_site_fract_y
 _atom_site_fract_z
 _atom_site_occupancy
  Ba  Ba1  1  -0.000000  0.500000  0.572722  1
  Ba  Ba2  1  0.000000  0.500000  0.427225  1
  Ni  Ni3  1  0.500000  -0.000000  0.644084  1
  Ni  Ni4  1  0.500000  -0.000000  0.499993  1
  Ni  Ni5  1  0.500000  -0.000000  0.355975  1
  O  O6  1  -0.000000  0.000000  0.647362  1
  O  O7  1  0.500000  0.500000  0.646928  1
  O  O8  1  0.500000  0.500000  0.499979  1
  O  O9  1  0.500000  0.000000  0.569654  1
  O  O10  1  -0.000000  0.000000  0.352663  1
  O  O11  1  0.500000  0.500000  0.353096  1
  O  O12  1  0.500000  0.000000  0.430344  1
  O  O13  1  -0.000000  0.000000  0.499978  1
