# generated using pymatgen
data_BaThBr6
_symmetry_space_group_name_H-M   'P 1'
_cell_length_a   4.30544801
_cell_length_b   9.57987668
_cell_length_c   24.70629998
_cell_angle_alpha   90.00000000
_cell_angle_beta   90.00000000
_cell_angle_gamma   90.00000000
_symmetry_Int_Tables_number   1
_chemical_formula_structural   BaThBr6
_chemical_formula_sum   'Ba1 Th1 Br6'
_cell_volume   1019.02767324
_cell_formula_units_Z   1
loop_
 _symmetry_equiv_pos_site_id
 _symmetry_equiv_pos_as_xyz
  1  'x, y, z'
loop_
 _atom_site_type_symbol
 _atom_site_label
 _atom_site_symmetry_multiplicity
 _atom_site_fract_x
 _atom_site_fract_y
 _atom_site_fract_z
 _atom_site_occupancy
  Ba  Ba1  1  0.500000  0.000000  0.494608  1
  Th  Th2  1  -0.000000  0.500000  0.505783  1
  Br  Br3  1  -0.000000  0.000000  0.405378  1
  Br  Br4  1  0.500000  0.500000  0.586936  1
  Br  Br5  1  0.500000  0.669477  0.446896  1
  Br  Br6  1  0.000000  0.216866  0.556751  1
  Br  Br7  1  -0.000000  0.783134  0.556751  1
  Br  Br8  1  0.500000  0.330523  0.446896  1
