# generated using pymatgen
data_Hg2WO4
_symmetry_space_group_name_H-M   'P 1'
_cell_length_a   4.98766991
_cell_length_b   8.15477786
_cell_length_c   24.53806800
_cell_angle_alpha   90.00000000
_cell_angle_beta   90.00000000
_cell_angle_gamma   94.09579679
_symmetry_Int_Tables_number   1
_chemical_formula_structural   Hg2WO4
_chemical_formula_sum   'Hg4 W2 O8'
_cell_volume   995.49620395
_cell_formula_units_Z   2
loop_
 _symmetry_equiv_pos_site_id
 _symmetry_equiv_pos_as_xyz
  1  'x, y, z'
loop_
 _atom_site_type_symbol
 _atom_site_label
 _atom_site_symmetry_multiplicity
 _atom_site_fract_x
 _atom_site_fract_y
 _atom_site_fract_z
 _atom_site_occupancy
  Hg  Hg1  1  0.243401  0.658611  0.560586  1
  Hg  Hg2  1  0.256599  0.341389  0.560586  1
  Hg  Hg3  1  0.756599  0.341389  0.439414  1
  Hg  Hg4  1  0.743401  0.658611  0.439414  1
  W  W5  1  0.750000  -0.000000  0.545720  1
  W  W6  1  0.250000  -0.000000  0.454280  1
  O  O7  1  0.584732  0.851731  0.591677  1
  O  O8  1  0.915269  0.148270  0.591677  1
  O  O9  1  0.415269  0.148270  0.408323  1
  O  O10  1  0.084732  0.851731  0.408323  1
  O  O11  1  0.047275  0.870548  0.523393  1
  O  O12  1  0.452726  0.129453  0.523393  1
  O  O13  1  0.547275  0.870548  0.476607  1
  O  O14  1  0.952726  0.129453  0.476607  1
