# generated using pymatgen
data_Li2FeP4O13
_symmetry_space_group_name_H-M   'P 1'
_cell_length_a   5.07947239
_cell_length_b   7.86216988
_cell_length_c   32.73078300
_cell_angle_alpha   90.00000000
_cell_angle_beta   90.00000000
_cell_angle_gamma   98.34384591
_symmetry_Int_Tables_number   1
_chemical_formula_structural   Li2FeP4O13
_chemical_formula_sum   'Li4 Fe2 P8 O26'
_cell_volume   1293.29001701
_cell_formula_units_Z   2
loop_
 _symmetry_equiv_pos_site_id
 _symmetry_equiv_pos_as_xyz
  1  'x, y, z'
loop_
 _atom_site_type_symbol
 _atom_site_label
 _atom_site_symmetry_multiplicity
 _atom_site_fract_x
 _atom_site_fract_y
 _atom_site_fract_z
 _atom_site_occupancy
  Li  Li1  1  0.912709  0.327494  0.493288  1
  Li  Li2  1  0.552067  0.429015  0.315202  1
  Li  Li3  1  0.447933  0.570985  0.684798  1
  Li  Li4  1  0.087291  0.672506  0.506712  1
  Fe  Fe5  1  0.510426  0.131293  0.394378  1
  Fe  Fe6  1  0.489574  0.868707  0.605622  1
  P  P7  1  0.974321  0.944981  0.438303  1
  P  P8  1  0.954607  0.688485  0.647812  1
  P  P9  1  0.639921  0.754679  0.376750  1
  P  P10  1  0.692474  0.516835  0.573888  1
  P  P11  1  0.307526  0.483165  0.426112  1
  P  P12  1  0.360079  0.245321  0.623250  1
  P  P13  1  0.045393  0.311515  0.352188  1
  P  P14  1  0.025679  0.055019  0.561697  1
  O  O15  1  0.810771  0.091780  0.432500  1
  O  O16  1  0.740837  0.261642  0.350360  1
  O  O17  1  0.916007  0.813436  0.399945  1
  O  O18  1  0.924184  0.841512  0.477179  1
  O  O19  1  0.673716  0.628975  0.344328  1
  O  O20  1  0.911423  0.556879  0.608885  1
  O  O21  1  0.724736  0.992549  0.563207  1
  O  O22  1  0.837894  0.598073  0.685579  1
  O  O23  1  0.502244  0.354226  0.424072  1
  O  O24  1  0.828827  0.498770  0.533974  1
  O  O25  1  0.458366  0.669260  0.414349  1
  O  O26  1  0.811380  0.841115  0.636659  1
  O  O27  1  0.525946  0.914967  0.364759  1
  O  O28  1  0.474054  0.085033  0.635241  1
  O  O29  1  0.188620  0.158885  0.363341  1
  O  O30  1  0.541634  0.330740  0.585651  1
  O  O31  1  0.171173  0.501230  0.466026  1
  O  O32  1  0.497756  0.645774  0.575928  1
  O  O33  1  0.162106  0.401927  0.314421  1
  O  O34  1  0.275264  0.007451  0.436793  1
  O  O35  1  0.088577  0.443121  0.391115  1
  O  O36  1  0.326284  0.371025  0.655672  1
  O  O37  1  0.075816  0.158488  0.522821  1
  O  O38  1  0.083993  0.186564  0.600055  1
  O  O39  1  0.259163  0.738358  0.649640  1
  O  O40  1  0.189229  0.908220  0.567500  1
