# generated using pymatgen
data_VO2
_symmetry_space_group_name_H-M   'P 1'
_cell_length_a   5.23183814
_cell_length_b   5.87029695
_cell_length_c   21.63104908
_cell_angle_alpha   91.02359140
_cell_angle_beta   89.84395166
_cell_angle_gamma   92.86452333
_symmetry_Int_Tables_number   1
_chemical_formula_structural   VO2
_chemical_formula_sum   'V4 O8'
_cell_volume   663.40527556
_cell_formula_units_Z   4
loop_
 _symmetry_equiv_pos_site_id
 _symmetry_equiv_pos_as_xyz
  1  'x, y, z'
loop_
 _atom_site_type_symbol
 _atom_site_label
 _atom_site_symmetry_multiplicity
 _atom_site_fract_x
 _atom_site_fract_y
 _atom_site_fract_z
 _atom_site_occupancy
  V  V1  1  0.499216  0.749177  0.499530  1
  V  V2  1  0.500039  0.249296  0.500418  1
  V  V3  1  0.000196  0.499484  0.500005  1
  V  V4  1  0.000125  0.999175  0.500015  1
  O  O5  1  0.162199  0.746145  0.544197  1
  O  O6  1  0.837509  0.252404  0.455778  1
  O  O7  1  0.837864  0.752611  0.455520  1
  O  O8  1  0.161940  0.245993  0.544479  1
  O  O9  1  0.337557  0.502228  0.455692  1
  O  O10  1  0.662169  0.995506  0.544344  1
  O  O11  1  0.662271  0.496383  0.544327  1
  O  O12  1  0.337688  0.003182  0.455695  1
