# generated using pymatgen
data_NaAsO2
_symmetry_space_group_name_H-M   'P 1'
_cell_length_a   5.07021254
_cell_length_b   6.70933300
_cell_length_c   25.09520931
_cell_angle_alpha   90.00000000
_cell_angle_beta   90.00000000
_cell_angle_gamma   90.00000000
_symmetry_Int_Tables_number   1
_chemical_formula_structural   NaAsO2
_chemical_formula_sum   'Na4 As4 O8'
_cell_volume   853.68241375
_cell_formula_units_Z   4
loop_
 _symmetry_equiv_pos_site_id
 _symmetry_equiv_pos_as_xyz
  1  'x, y, z'
loop_
 _atom_site_type_symbol
 _atom_site_label
 _atom_site_symmetry_multiplicity
 _atom_site_fract_x
 _atom_site_fract_y
 _atom_site_fract_z
 _atom_site_occupancy
  Na  Na1  1  0.258180  0.098975  0.469257  1
  Na  Na2  1  0.758180  0.901025  0.530743  1
  Na  Na3  1  0.258180  0.598975  0.530743  1
  Na  Na4  1  0.758180  0.401025  0.469257  1
  As  As5  1  0.743902  0.405799  0.602390  1
  As  As6  1  0.243902  0.094201  0.602390  1
  As  As7  1  0.743902  0.905799  0.397610  1
  As  As8  1  0.243902  0.594201  0.397610  1
  O  O9  1  0.302461  0.429413  0.449245  1
  O  O10  1  0.802461  0.570587  0.550755  1
  O  O11  1  0.422595  0.318018  0.575549  1
  O  O12  1  0.922595  0.681982  0.424451  1
  O  O13  1  0.802461  0.070587  0.449245  1
  O  O14  1  0.922595  0.181982  0.575549  1
  O  O15  1  0.302461  0.929413  0.550755  1
  O  O16  1  0.422595  0.818018  0.424451  1
