# generated using pymatgen
data_Zr3SO9
_symmetry_space_group_name_H-M   'P 1'
_cell_length_a   6.41701718
_cell_length_b   6.41701725
_cell_length_c   27.42448500
_cell_angle_alpha   90.00000000
_cell_angle_beta   90.00000000
_cell_angle_gamma   119.99999965
_symmetry_Int_Tables_number   1
_chemical_formula_structural   Zr3SO9
_chemical_formula_sum   'Zr6 S2 O18'
_cell_volume   977.99249661
_cell_formula_units_Z   2
loop_
 _symmetry_equiv_pos_site_id
 _symmetry_equiv_pos_as_xyz
  1  'x, y, z'
loop_
 _atom_site_type_symbol
 _atom_site_label
 _atom_site_symmetry_multiplicity
 _atom_site_fract_x
 _atom_site_fract_y
 _atom_site_fract_z
 _atom_site_occupancy
  Zr  Zr1  1  0.968485  0.666294  0.552453  1
  Zr  Zr2  1  0.333706  0.302193  0.552453  1
  Zr  Zr3  1  0.697807  0.031515  0.552453  1
  Zr  Zr4  1  0.031515  0.333706  0.447547  1
  Zr  Zr5  1  0.666294  0.697807  0.447547  1
  Zr  Zr6  1  0.302193  0.968485  0.447547  1
  S  S7  1  0.333333  0.666667  0.624004  1
  S  S8  1  0.666667  0.333333  0.375996  1
  O  O9  1  0.328362  0.440475  0.635263  1
  O  O10  1  0.559525  0.887888  0.635263  1
  O  O11  1  0.112112  0.671638  0.635263  1
  O  O12  1  0.671638  0.559525  0.364737  1
  O  O13  1  0.440475  0.112112  0.364737  1
  O  O14  1  0.887888  0.328362  0.364737  1
  O  O15  1  0.002936  0.334770  0.525259  1
  O  O16  1  0.665230  0.668166  0.525259  1
  O  O17  1  0.000000  0.000000  0.423296  1
  O  O18  1  0.000000  0.000000  0.576704  1
  O  O19  1  0.666667  0.333333  0.432664  1
  O  O20  1  0.333333  0.666667  0.567336  1
  O  O21  1  0.333333  0.666667  0.423013  1
  O  O22  1  0.666667  0.333333  0.576987  1
  O  O23  1  0.668166  0.002936  0.474741  1
  O  O24  1  0.334770  0.331834  0.474741  1
  O  O25  1  0.997064  0.665230  0.474741  1
  O  O26  1  0.331834  0.997064  0.525259  1
