# generated using pymatgen
data_GdBr3
_symmetry_space_group_name_H-M   'P 1'
_cell_length_a   7.19763527
_cell_length_b   7.19763586
_cell_length_c   23.22185100
_cell_angle_alpha   90.00000000
_cell_angle_beta   90.00000000
_cell_angle_gamma   119.97219306
_symmetry_Int_Tables_number   1
_chemical_formula_structural   GdBr3
_chemical_formula_sum   'Gd2 Br6'
_cell_volume   1042.14654925
_cell_formula_units_Z   2
loop_
 _symmetry_equiv_pos_site_id
 _symmetry_equiv_pos_as_xyz
  1  'x, y, z'
loop_
 _atom_site_type_symbol
 _atom_site_label
 _atom_site_symmetry_multiplicity
 _atom_site_fract_x
 _atom_site_fract_y
 _atom_site_fract_z
 _atom_site_occupancy
  Gd  Gd1  1  0.833387  0.166613  0.500000  1
  Gd  Gd2  1  0.166613  0.833387  0.500000  1
  Br  Br3  1  0.854908  0.854908  0.430398  1
  Br  Br4  1  0.145092  0.145092  0.569602  1
  Br  Br5  1  0.499797  0.855913  0.569886  1
  Br  Br6  1  0.144087  0.500203  0.430114  1
  Br  Br7  1  0.500203  0.144087  0.430114  1
  Br  Br8  1  0.855913  0.499797  0.569886  1
