# generated using pymatgen
data_NaAu(SO4)2
_symmetry_space_group_name_H-M   'P 1'
_cell_length_a   4.81786821
_cell_length_b   8.01352250
_cell_length_c   26.40391300
_cell_angle_alpha   90.00000000
_cell_angle_beta   90.00000000
_cell_angle_gamma   95.39340110
_symmetry_Int_Tables_number   1
_chemical_formula_structural   NaAu(SO4)2
_chemical_formula_sum   'Na1 Au1 S2 O8'
_cell_volume   1014.89167701
_cell_formula_units_Z   1
loop_
 _symmetry_equiv_pos_site_id
 _symmetry_equiv_pos_as_xyz
  1  'x, y, z'
loop_
 _atom_site_type_symbol
 _atom_site_label
 _atom_site_symmetry_multiplicity
 _atom_site_fract_x
 _atom_site_fract_y
 _atom_site_fract_z
 _atom_site_occupancy
  Na  Na1  1  0.500000  0.500000  0.500000  1
  Au  Au2  1  -0.000000  0.000000  0.500000  1
  S  S3  1  0.506544  0.114408  0.431497  1
  S  S4  1  0.493456  0.885592  0.568503  1
  O  O5  1  0.329371  0.960961  0.454945  1
  O  O6  1  0.805650  0.060401  0.435021  1
  O  O7  1  0.194350  0.939600  0.564979  1
  O  O8  1  0.670629  0.039039  0.545055  1
  O  O9  1  0.449025  0.134105  0.379099  1
  O  O10  1  0.522477  0.741232  0.535848  1
  O  O11  1  0.550975  0.865895  0.620901  1
  O  O12  1  0.477523  0.258768  0.464152  1
